version 2
run General-0-20160808-14:05:49-8827
attr configname General
attr datetime 20160808-14:05:49
attr experiment General
attr inifile _defaults.ini
attr iterationvars ""
attr iterationvars2 $repetition=0
attr measurement ""
attr network vanets.src.RSUScenario
attr processid 8827
attr repetition 0
attr replication #0
attr resultdir results
attr runnumber 0
attr seedset 0

scalar RSUScenario.node[0].nic.phy80211p 	busyTime 	5.2932330827066e-05
scalar RSUScenario.node[0].nic.mac1609_4 	throughputMetricMac 	0.30963962448848
scalar RSUScenario.node[0].nic.mac1609_4 	throughputMbps 	0.00039633871934526
scalar RSUScenario.node[0].nic.mac1609_4 	throughputControlMbps 	0
scalar RSUScenario.node[0].nic.mac1609_4 	ReceivedUnicastPackets 	0
scalar RSUScenario.node[0].nic.mac1609_4 	ReceivedBroadcasts 	7
scalar RSUScenario.node[0].nic.mac1609_4 	SentPackets 	1
scalar RSUScenario.node[0].nic.mac1609_4 	SNIRLostPackets 	1
scalar RSUScenario.node[0].nic.mac1609_4 	RXTXLostPackets 	0
scalar RSUScenario.node[0].nic.mac1609_4 	TotalLostPackets 	1
scalar RSUScenario.node[0].nic.mac1609_4 	DroppedPacketsInMac 	0
scalar RSUScenario.node[0].nic.mac1609_4 	TooLittleTime 	0
scalar RSUScenario.node[0].nic.mac1609_4 	TimesIntoBackoff 	1
scalar RSUScenario.node[0].nic.mac1609_4 	SlotsBackoff 	0
scalar RSUScenario.node[0].nic.mac1609_4 	NumInternalContention 	0
scalar RSUScenario.node[0].nic.mac1609_4 	totalBusyTime 	0.002113
scalar RSUScenario.node[0].nic.mac1609_4 	throughputMetricMac:last 	0.30963962448848
attr source  throughputSignalMac
attr title  "throughputMetricMac, last"
scalar RSUScenario.node[0].nic.mac1609_4 	throughputMetricMac:count 	7
attr source  throughputSignalMac
attr title  "throughputMetricMac, count"
scalar RSUScenario.node[0].nic.mac1609_4 	throughputMetricMac:sum 	1.2386081791222
attr source  throughputSignalMac
attr title  "throughputMetricMac, sum"
scalar RSUScenario.node[0].nic.mac1609_4 	throughputMetricMac:mean 	0.17694402558888
attr source  throughputSignalMac
attr title  "throughputMetricMac, mean"
scalar RSUScenario.node[0].veinsmobility 	startTime 	0.1
scalar RSUScenario.node[0].veinsmobility 	totalTime 	39.8
scalar RSUScenario.node[0].veinsmobility 	stopTime 	40
scalar RSUScenario.node[0].veinsmobility 	minSpeed 	0
scalar RSUScenario.node[0].veinsmobility 	maxSpeed 	13.884905587435
scalar RSUScenario.node[0].veinsmobility 	totalDistance 	106.90921787911
scalar RSUScenario.node[0].veinsmobility 	totalCO2Emission 	69.419824628418
scalar RSUScenario.node[1].nic.phy80211p 	busyTime 	5.0081300813008e-05
scalar RSUScenario.node[1].nic.mac1609_4 	throughputMetricMac 	0.30963962483045
scalar RSUScenario.node[1].nic.mac1609_4 	throughputMbps 	0.00039633871978298
scalar RSUScenario.node[1].nic.mac1609_4 	throughputControlMbps 	0
scalar RSUScenario.node[1].nic.mac1609_4 	ReceivedUnicastPackets 	0
scalar RSUScenario.node[1].nic.mac1609_4 	ReceivedBroadcasts 	7
scalar RSUScenario.node[1].nic.mac1609_4 	SentPackets 	1
scalar RSUScenario.node[1].nic.mac1609_4 	SNIRLostPackets 	0
scalar RSUScenario.node[1].nic.mac1609_4 	RXTXLostPackets 	1
scalar RSUScenario.node[1].nic.mac1609_4 	TotalLostPackets 	1
scalar RSUScenario.node[1].nic.mac1609_4 	DroppedPacketsInMac 	0
scalar RSUScenario.node[1].nic.mac1609_4 	TooLittleTime 	0
scalar RSUScenario.node[1].nic.mac1609_4 	TimesIntoBackoff 	2
scalar RSUScenario.node[1].nic.mac1609_4 	SlotsBackoff 	7
scalar RSUScenario.node[1].nic.mac1609_4 	NumInternalContention 	0
scalar RSUScenario.node[1].nic.mac1609_4 	totalBusyTime 	0.002113
scalar RSUScenario.node[1].nic.mac1609_4 	throughputMetricMac:last 	0.30963962483045
attr source  throughputSignalMac
attr title  "throughputMetricMac, last"
scalar RSUScenario.node[1].nic.mac1609_4 	throughputMetricMac:count 	7
attr source  throughputSignalMac
attr title  "throughputMetricMac, count"
scalar RSUScenario.node[1].nic.mac1609_4 	throughputMetricMac:sum 	1.2386345623675
attr source  throughputSignalMac
attr title  "throughputMetricMac, sum"
scalar RSUScenario.node[1].nic.mac1609_4 	throughputMetricMac:mean 	0.17694779462393
attr source  throughputSignalMac
attr title  "throughputMetricMac, mean"
scalar RSUScenario.node[1].veinsmobility 	startTime 	3.1
scalar RSUScenario.node[1].veinsmobility 	totalTime 	36.8
scalar RSUScenario.node[1].veinsmobility 	stopTime 	40
scalar RSUScenario.node[1].veinsmobility 	minSpeed 	4.0002965811431e-11
scalar RSUScenario.node[1].veinsmobility 	maxSpeed 	13.874893751706
scalar RSUScenario.node[1].veinsmobility 	totalDistance 	99.400315302701
scalar RSUScenario.node[1].veinsmobility 	totalCO2Emission 	67.240657773543
scalar RSUScenario.node[10].nic.phy80211p 	busyTime 	0
scalar RSUScenario.node[10].nic.mac1609_4 	throughputMetricMac 	0
scalar RSUScenario.node[10].nic.mac1609_4 	throughputMbps 	0
scalar RSUScenario.node[10].nic.mac1609_4 	throughputControlMbps 	0
scalar RSUScenario.node[10].nic.mac1609_4 	ReceivedUnicastPackets 	0
scalar RSUScenario.node[10].nic.mac1609_4 	ReceivedBroadcasts 	0
scalar RSUScenario.node[10].nic.mac1609_4 	SentPackets 	0
scalar RSUScenario.node[10].nic.mac1609_4 	SNIRLostPackets 	0
scalar RSUScenario.node[10].nic.mac1609_4 	RXTXLostPackets 	0
scalar RSUScenario.node[10].nic.mac1609_4 	TotalLostPackets 	0
scalar RSUScenario.node[10].nic.mac1609_4 	DroppedPacketsInMac 	0
scalar RSUScenario.node[10].nic.mac1609_4 	TooLittleTime 	0
scalar RSUScenario.node[10].nic.mac1609_4 	TimesIntoBackoff 	0
scalar RSUScenario.node[10].nic.mac1609_4 	SlotsBackoff 	0
scalar RSUScenario.node[10].nic.mac1609_4 	NumInternalContention 	0
scalar RSUScenario.node[10].nic.mac1609_4 	totalBusyTime 	0
scalar RSUScenario.node[10].nic.mac1609_4 	throughputMetricMac:last 	-nan
attr source  throughputSignalMac
attr title  "throughputMetricMac, last"
scalar RSUScenario.node[10].nic.mac1609_4 	throughputMetricMac:count 	0
attr source  throughputSignalMac
attr title  "throughputMetricMac, count"
scalar RSUScenario.node[10].nic.mac1609_4 	throughputMetricMac:sum 	0
attr source  throughputSignalMac
attr title  "throughputMetricMac, sum"
scalar RSUScenario.node[10].nic.mac1609_4 	throughputMetricMac:mean 	-nan
attr source  throughputSignalMac
attr title  "throughputMetricMac, mean"
scalar RSUScenario.node[10].veinsmobility 	startTime 	30.1
scalar RSUScenario.node[10].veinsmobility 	totalTime 	9.8
scalar RSUScenario.node[10].veinsmobility 	stopTime 	40
scalar RSUScenario.node[10].veinsmobility 	minSpeed 	0.25212574459263
scalar RSUScenario.node[10].veinsmobility 	maxSpeed 	7.3662378855759
scalar RSUScenario.node[10].veinsmobility 	totalDistance 	31.613411605485
scalar RSUScenario.node[10].veinsmobility 	totalCO2Emission 	17.283426557963
scalar RSUScenario.node[11].nic.phy80211p 	busyTime 	0
scalar RSUScenario.node[11].nic.mac1609_4 	throughputMetricMac 	0
scalar RSUScenario.node[11].nic.mac1609_4 	throughputMbps 	0
scalar RSUScenario.node[11].nic.mac1609_4 	throughputControlMbps 	0
scalar RSUScenario.node[11].nic.mac1609_4 	ReceivedUnicastPackets 	0
scalar RSUScenario.node[11].nic.mac1609_4 	ReceivedBroadcasts 	0
scalar RSUScenario.node[11].nic.mac1609_4 	SentPackets 	0
scalar RSUScenario.node[11].nic.mac1609_4 	SNIRLostPackets 	0
scalar RSUScenario.node[11].nic.mac1609_4 	RXTXLostPackets 	0
scalar RSUScenario.node[11].nic.mac1609_4 	TotalLostPackets 	0
scalar RSUScenario.node[11].nic.mac1609_4 	DroppedPacketsInMac 	0
scalar RSUScenario.node[11].nic.mac1609_4 	TooLittleTime 	0
scalar RSUScenario.node[11].nic.mac1609_4 	TimesIntoBackoff 	0
scalar RSUScenario.node[11].nic.mac1609_4 	SlotsBackoff 	0
scalar RSUScenario.node[11].nic.mac1609_4 	NumInternalContention 	0
scalar RSUScenario.node[11].nic.mac1609_4 	totalBusyTime 	0
scalar RSUScenario.node[11].nic.mac1609_4 	throughputMetricMac:last 	-nan
attr source  throughputSignalMac
attr title  "throughputMetricMac, last"
scalar RSUScenario.node[11].nic.mac1609_4 	throughputMetricMac:count 	0
attr source  throughputSignalMac
attr title  "throughputMetricMac, count"
scalar RSUScenario.node[11].nic.mac1609_4 	throughputMetricMac:sum 	0
attr source  throughputSignalMac
attr title  "throughputMetricMac, sum"
scalar RSUScenario.node[11].nic.mac1609_4 	throughputMetricMac:mean 	-nan
attr source  throughputSignalMac
attr title  "throughputMetricMac, mean"
scalar RSUScenario.node[11].veinsmobility 	startTime 	33.1
scalar RSUScenario.node[11].veinsmobility 	totalTime 	6.8
scalar RSUScenario.node[11].veinsmobility 	stopTime 	40
scalar RSUScenario.node[11].veinsmobility 	minSpeed 	0.25846435284638
scalar RSUScenario.node[11].veinsmobility 	maxSpeed 	6.2295754026937
scalar RSUScenario.node[11].veinsmobility 	totalDistance 	22.846533594824
scalar RSUScenario.node[11].veinsmobility 	totalCO2Emission 	12.239591517146
scalar RSUScenario.node[12].nic.phy80211p 	busyTime 	0
scalar RSUScenario.node[12].nic.mac1609_4 	throughputMetricMac 	0
scalar RSUScenario.node[12].nic.mac1609_4 	throughputMbps 	0
scalar RSUScenario.node[12].nic.mac1609_4 	throughputControlMbps 	0
scalar RSUScenario.node[12].nic.mac1609_4 	ReceivedUnicastPackets 	0
scalar RSUScenario.node[12].nic.mac1609_4 	ReceivedBroadcasts 	0
scalar RSUScenario.node[12].nic.mac1609_4 	SentPackets 	0
scalar RSUScenario.node[12].nic.mac1609_4 	SNIRLostPackets 	0
scalar RSUScenario.node[12].nic.mac1609_4 	RXTXLostPackets 	0
scalar RSUScenario.node[12].nic.mac1609_4 	TotalLostPackets 	0
scalar RSUScenario.node[12].nic.mac1609_4 	DroppedPacketsInMac 	0
scalar RSUScenario.node[12].nic.mac1609_4 	TooLittleTime 	0
scalar RSUScenario.node[12].nic.mac1609_4 	TimesIntoBackoff 	0
scalar RSUScenario.node[12].nic.mac1609_4 	SlotsBackoff 	0
scalar RSUScenario.node[12].nic.mac1609_4 	NumInternalContention 	0
scalar RSUScenario.node[12].nic.mac1609_4 	totalBusyTime 	0
scalar RSUScenario.node[12].nic.mac1609_4 	throughputMetricMac:last 	-nan
attr source  throughputSignalMac
attr title  "throughputMetricMac, last"
scalar RSUScenario.node[12].nic.mac1609_4 	throughputMetricMac:count 	0
attr source  throughputSignalMac
attr title  "throughputMetricMac, count"
scalar RSUScenario.node[12].nic.mac1609_4 	throughputMetricMac:sum 	0
attr source  throughputSignalMac
attr title  "throughputMetricMac, sum"
scalar RSUScenario.node[12].nic.mac1609_4 	throughputMetricMac:mean 	-nan
attr source  throughputSignalMac
attr title  "throughputMetricMac, mean"
scalar RSUScenario.node[12].veinsmobility 	startTime 	36.1
scalar RSUScenario.node[12].veinsmobility 	totalTime 	3.8
scalar RSUScenario.node[12].veinsmobility 	stopTime 	40
scalar RSUScenario.node[12].veinsmobility 	minSpeed 	0.25493586944463
scalar RSUScenario.node[12].veinsmobility 	maxSpeed 	4.8206017082368
scalar RSUScenario.node[12].veinsmobility 	totalDistance 	11.82814078542
scalar RSUScenario.node[12].veinsmobility 	totalCO2Emission 	7.1137975013347
scalar RSUScenario.node[13].nic.phy80211p 	busyTime 	0
scalar RSUScenario.node[13].nic.mac1609_4 	throughputMetricMac 	0
scalar RSUScenario.node[13].nic.mac1609_4 	throughputMbps 	0
scalar RSUScenario.node[13].nic.mac1609_4 	throughputControlMbps 	0
scalar RSUScenario.node[13].nic.mac1609_4 	ReceivedUnicastPackets 	0
scalar RSUScenario.node[13].nic.mac1609_4 	ReceivedBroadcasts 	0
scalar RSUScenario.node[13].nic.mac1609_4 	SentPackets 	0
scalar RSUScenario.node[13].nic.mac1609_4 	SNIRLostPackets 	0
scalar RSUScenario.node[13].nic.mac1609_4 	RXTXLostPackets 	0
scalar RSUScenario.node[13].nic.mac1609_4 	TotalLostPackets 	0
scalar RSUScenario.node[13].nic.mac1609_4 	DroppedPacketsInMac 	0
scalar RSUScenario.node[13].nic.mac1609_4 	TooLittleTime 	0
scalar RSUScenario.node[13].nic.mac1609_4 	TimesIntoBackoff 	0
scalar RSUScenario.node[13].nic.mac1609_4 	SlotsBackoff 	0
scalar RSUScenario.node[13].nic.mac1609_4 	NumInternalContention 	0
scalar RSUScenario.node[13].nic.mac1609_4 	totalBusyTime 	0
scalar RSUScenario.node[13].nic.mac1609_4 	throughputMetricMac:last 	-nan
attr source  throughputSignalMac
attr title  "throughputMetricMac, last"
scalar RSUScenario.node[13].nic.mac1609_4 	throughputMetricMac:count 	0
attr source  throughputSignalMac
attr title  "throughputMetricMac, count"
scalar RSUScenario.node[13].nic.mac1609_4 	throughputMetricMac:sum 	0
attr source  throughputSignalMac
attr title  "throughputMetricMac, sum"
scalar RSUScenario.node[13].nic.mac1609_4 	throughputMetricMac:mean 	-nan
attr source  throughputSignalMac
attr title  "throughputMetricMac, mean"
scalar RSUScenario.node[13].veinsmobility 	startTime 	39.1
scalar RSUScenario.node[13].veinsmobility 	totalTime 	0.8
scalar RSUScenario.node[13].veinsmobility 	stopTime 	40
scalar RSUScenario.node[13].veinsmobility 	minSpeed 	0.25405705494387
scalar RSUScenario.node[13].veinsmobility 	maxSpeed 	1.8923902909068
scalar RSUScenario.node[13].veinsmobility 	totalDistance 	0.865188105925
scalar RSUScenario.node[13].veinsmobility 	totalCO2Emission 	1.2878801748303
scalar RSUScenario.node[2].nic.phy80211p 	busyTime 	6.2300884955752e-05
scalar RSUScenario.node[2].nic.mac1609_4 	throughputMetricMac 	0.30964476151159
scalar RSUScenario.node[2].nic.mac1609_4 	throughputMbps 	0.00039634529473484
scalar RSUScenario.node[2].nic.mac1609_4 	throughputControlMbps 	0
scalar RSUScenario.node[2].nic.mac1609_4 	ReceivedUnicastPackets 	0
scalar RSUScenario.node[2].nic.mac1609_4 	ReceivedBroadcasts 	7
scalar RSUScenario.node[2].nic.mac1609_4 	SentPackets 	1
scalar RSUScenario.node[2].nic.mac1609_4 	SNIRLostPackets 	1
scalar RSUScenario.node[2].nic.mac1609_4 	RXTXLostPackets 	0
scalar RSUScenario.node[2].nic.mac1609_4 	TotalLostPackets 	1
scalar RSUScenario.node[2].nic.mac1609_4 	DroppedPacketsInMac 	0
scalar RSUScenario.node[2].nic.mac1609_4 	TooLittleTime 	0
scalar RSUScenario.node[2].nic.mac1609_4 	TimesIntoBackoff 	2
scalar RSUScenario.node[2].nic.mac1609_4 	SlotsBackoff 	8
scalar RSUScenario.node[2].nic.mac1609_4 	NumInternalContention 	0
scalar RSUScenario.node[2].nic.mac1609_4 	totalBusyTime 	0.002113
scalar RSUScenario.node[2].nic.mac1609_4 	throughputMetricMac:last 	0.30964476151159
attr source  throughputSignalMac
attr title  "throughputMetricMac, last"
scalar RSUScenario.node[2].nic.mac1609_4 	throughputMetricMac:count 	7
attr source  throughputSignalMac
attr title  "throughputMetricMac, count"
scalar RSUScenario.node[2].nic.mac1609_4 	throughputMetricMac:sum 	1.2386396995898
attr source  throughputSignalMac
attr title  "throughputMetricMac, sum"
scalar RSUScenario.node[2].nic.mac1609_4 	throughputMetricMac:mean 	0.17694852851282
attr source  throughputSignalMac
attr title  "throughputMetricMac, mean"
scalar RSUScenario.node[2].veinsmobility 	startTime 	6.1
scalar RSUScenario.node[2].veinsmobility 	totalTime 	33.8
scalar RSUScenario.node[2].veinsmobility 	stopTime 	40
scalar RSUScenario.node[2].veinsmobility 	minSpeed 	1.7001847712892e-09
scalar RSUScenario.node[2].veinsmobility 	maxSpeed 	13.882936061814
scalar RSUScenario.node[2].veinsmobility 	totalDistance 	91.898612358205
scalar RSUScenario.node[2].veinsmobility 	totalCO2Emission 	62.644067993354
scalar RSUScenario.node[3].nic.phy80211p 	busyTime 	6.8349514563107e-05
scalar RSUScenario.node[3].nic.mac1609_4 	throughputMetricMac 	0.30963962480578
scalar RSUScenario.node[3].nic.mac1609_4 	throughputMbps 	0.0003963387197514
scalar RSUScenario.node[3].nic.mac1609_4 	throughputControlMbps 	0
scalar RSUScenario.node[3].nic.mac1609_4 	ReceivedUnicastPackets 	0
scalar RSUScenario.node[3].nic.mac1609_4 	ReceivedBroadcasts 	7
scalar RSUScenario.node[3].nic.mac1609_4 	SentPackets 	1
scalar RSUScenario.node[3].nic.mac1609_4 	SNIRLostPackets 	1
scalar RSUScenario.node[3].nic.mac1609_4 	RXTXLostPackets 	0
scalar RSUScenario.node[3].nic.mac1609_4 	TotalLostPackets 	1
scalar RSUScenario.node[3].nic.mac1609_4 	DroppedPacketsInMac 	0
scalar RSUScenario.node[3].nic.mac1609_4 	TooLittleTime 	0
scalar RSUScenario.node[3].nic.mac1609_4 	TimesIntoBackoff 	1
scalar RSUScenario.node[3].nic.mac1609_4 	SlotsBackoff 	3
scalar RSUScenario.node[3].nic.mac1609_4 	NumInternalContention 	0
scalar RSUScenario.node[3].nic.mac1609_4 	totalBusyTime 	0.002113
scalar RSUScenario.node[3].nic.mac1609_4 	throughputMetricMac:last 	0.30963962480578
attr source  throughputSignalMac
attr title  "throughputMetricMac, last"
scalar RSUScenario.node[3].nic.mac1609_4 	throughputMetricMac:count 	7
attr source  throughputSignalMac
attr title  "throughputMetricMac, count"
scalar RSUScenario.node[3].nic.mac1609_4 	throughputMetricMac:sum 	1.2386304647806
attr source  throughputSignalMac
attr title  "throughputMetricMac, sum"
scalar RSUScenario.node[3].nic.mac1609_4 	throughputMetricMac:mean 	0.17694720925438
attr source  throughputSignalMac
attr title  "throughputMetricMac, mean"
scalar RSUScenario.node[3].veinsmobility 	startTime 	9.1
scalar RSUScenario.node[3].veinsmobility 	totalTime 	30.8
scalar RSUScenario.node[3].veinsmobility 	stopTime 	40
scalar RSUScenario.node[3].veinsmobility 	minSpeed 	3.4508713530265e-08
scalar RSUScenario.node[3].veinsmobility 	maxSpeed 	13.126661577776
scalar RSUScenario.node[3].veinsmobility 	totalDistance 	84.406498553818
scalar RSUScenario.node[3].veinsmobility 	totalCO2Emission 	56.486176081669
scalar RSUScenario.node[4].nic.phy80211p 	busyTime 	6.6236559139785e-05
scalar RSUScenario.node[4].nic.mac1609_4 	throughputMetricMac 	0.26540539223579
scalar RSUScenario.node[4].nic.mac1609_4 	throughputMbps 	0.00033971890206181
scalar RSUScenario.node[4].nic.mac1609_4 	throughputControlMbps 	0
scalar RSUScenario.node[4].nic.mac1609_4 	ReceivedUnicastPackets 	0
scalar RSUScenario.node[4].nic.mac1609_4 	ReceivedBroadcasts 	6
scalar RSUScenario.node[4].nic.mac1609_4 	SentPackets 	1
scalar RSUScenario.node[4].nic.mac1609_4 	SNIRLostPackets 	1
scalar RSUScenario.node[4].nic.mac1609_4 	RXTXLostPackets 	0
scalar RSUScenario.node[4].nic.mac1609_4 	TotalLostPackets 	1
scalar RSUScenario.node[4].nic.mac1609_4 	DroppedPacketsInMac 	0
scalar RSUScenario.node[4].nic.mac1609_4 	TooLittleTime 	0
scalar RSUScenario.node[4].nic.mac1609_4 	TimesIntoBackoff 	1
scalar RSUScenario.node[4].nic.mac1609_4 	SlotsBackoff 	4
scalar RSUScenario.node[4].nic.mac1609_4 	NumInternalContention 	0
scalar RSUScenario.node[4].nic.mac1609_4 	totalBusyTime 	0.001849
scalar RSUScenario.node[4].nic.mac1609_4 	throughputMetricMac:last 	0.26540539223579
attr source  throughputSignalMac
attr title  "throughputMetricMac, last"
scalar RSUScenario.node[4].nic.mac1609_4 	throughputMetricMac:count 	6
attr source  throughputSignalMac
attr title  "throughputMetricMac, count"
scalar RSUScenario.node[4].nic.mac1609_4 	throughputMetricMac:sum 	0.92896157070083
attr source  throughputSignalMac
attr title  "throughputMetricMac, sum"
scalar RSUScenario.node[4].nic.mac1609_4 	throughputMetricMac:mean 	0.15482692845014
attr source  throughputSignalMac
attr title  "throughputMetricMac, mean"
scalar RSUScenario.node[4].veinsmobility 	startTime 	12.1
scalar RSUScenario.node[4].veinsmobility 	totalTime 	27.8
scalar RSUScenario.node[4].veinsmobility 	stopTime 	40
scalar RSUScenario.node[4].veinsmobility 	minSpeed 	5.4603423843531e-07
scalar RSUScenario.node[4].veinsmobility 	maxSpeed 	12.335527663514
scalar RSUScenario.node[4].veinsmobility 	totalDistance 	76.897335922119
scalar RSUScenario.node[4].veinsmobility 	totalCO2Emission 	50.387402156162
scalar RSUScenario.node[5].nic.phy80211p 	busyTime 	7.421686746988e-05
scalar RSUScenario.node[5].nic.mac1609_4 	throughputMetricMac 	0.22117115953666
scalar RSUScenario.node[5].nic.mac1609_4 	throughputMbps 	0.00028309908420692
scalar RSUScenario.node[5].nic.mac1609_4 	throughputControlMbps 	0
scalar RSUScenario.node[5].nic.mac1609_4 	ReceivedUnicastPackets 	0
scalar RSUScenario.node[5].nic.mac1609_4 	ReceivedBroadcasts 	5
scalar RSUScenario.node[5].nic.mac1609_4 	SentPackets 	1
scalar RSUScenario.node[5].nic.mac1609_4 	SNIRLostPackets 	2
scalar RSUScenario.node[5].nic.mac1609_4 	RXTXLostPackets 	0
scalar RSUScenario.node[5].nic.mac1609_4 	TotalLostPackets 	2
scalar RSUScenario.node[5].nic.mac1609_4 	DroppedPacketsInMac 	0
scalar RSUScenario.node[5].nic.mac1609_4 	TooLittleTime 	0
scalar RSUScenario.node[5].nic.mac1609_4 	TimesIntoBackoff 	1
scalar RSUScenario.node[5].nic.mac1609_4 	SlotsBackoff 	1
scalar RSUScenario.node[5].nic.mac1609_4 	NumInternalContention 	0
scalar RSUScenario.node[5].nic.mac1609_4 	totalBusyTime 	0.001849
scalar RSUScenario.node[5].nic.mac1609_4 	throughputMetricMac:last 	0.22117115953666
attr source  throughputSignalMac
attr title  "throughputMetricMac, last"
scalar RSUScenario.node[5].nic.mac1609_4 	throughputMetricMac:count 	5
attr source  throughputSignalMac
attr title  "throughputMetricMac, count"
scalar RSUScenario.node[5].nic.mac1609_4 	throughputMetricMac:sum 	0.66354559543068
attr source  throughputSignalMac
attr title  "throughputMetricMac, sum"
scalar RSUScenario.node[5].nic.mac1609_4 	throughputMetricMac:mean 	0.13270911908614
attr source  throughputSignalMac
attr title  "throughputMetricMac, mean"
scalar RSUScenario.node[5].veinsmobility 	startTime 	15.1
scalar RSUScenario.node[5].veinsmobility 	totalTime 	24.8
scalar RSUScenario.node[5].veinsmobility 	stopTime 	40
scalar RSUScenario.node[5].veinsmobility 	minSpeed 	6.3895324469741e-06
scalar RSUScenario.node[5].veinsmobility 	maxSpeed 	11.616203796647
scalar RSUScenario.node[5].veinsmobility 	totalDistance 	69.401775226783
scalar RSUScenario.node[5].veinsmobility 	totalCO2Emission 	44.748184874326
scalar RSUScenario.node[6].nic.phy80211p 	busyTime 	8.4383561643832e-05
scalar RSUScenario.node[6].nic.mac1609_4 	throughputMetricMac 	0.22117115856698
scalar RSUScenario.node[6].nic.mac1609_4 	throughputMbps 	0.00028309908296574
scalar RSUScenario.node[6].nic.mac1609_4 	throughputControlMbps 	0
scalar RSUScenario.node[6].nic.mac1609_4 	ReceivedUnicastPackets 	0
scalar RSUScenario.node[6].nic.mac1609_4 	ReceivedBroadcasts 	5
scalar RSUScenario.node[6].nic.mac1609_4 	SentPackets 	1
scalar RSUScenario.node[6].nic.mac1609_4 	SNIRLostPackets 	2
scalar RSUScenario.node[6].nic.mac1609_4 	RXTXLostPackets 	0
scalar RSUScenario.node[6].nic.mac1609_4 	TotalLostPackets 	2
scalar RSUScenario.node[6].nic.mac1609_4 	DroppedPacketsInMac 	0
scalar RSUScenario.node[6].nic.mac1609_4 	TooLittleTime 	0
scalar RSUScenario.node[6].nic.mac1609_4 	TimesIntoBackoff 	1
scalar RSUScenario.node[6].nic.mac1609_4 	SlotsBackoff 	0
scalar RSUScenario.node[6].nic.mac1609_4 	NumInternalContention 	0
scalar RSUScenario.node[6].nic.mac1609_4 	totalBusyTime 	0.001849023964
scalar RSUScenario.node[6].nic.mac1609_4 	throughputMetricMac:last 	0.22117115856698
attr source  throughputSignalMac
attr title  "throughputMetricMac, last"
scalar RSUScenario.node[6].nic.mac1609_4 	throughputMetricMac:count 	5
attr source  throughputSignalMac
attr title  "throughputMetricMac, count"
scalar RSUScenario.node[6].nic.mac1609_4 	throughputMetricMac:sum 	0.66356089095517
attr source  throughputSignalMac
attr title  "throughputMetricMac, sum"
scalar RSUScenario.node[6].nic.mac1609_4 	throughputMetricMac:mean 	0.13271217819103
attr source  throughputSignalMac
attr title  "throughputMetricMac, mean"
scalar RSUScenario.node[6].veinsmobility 	startTime 	18.1
scalar RSUScenario.node[6].veinsmobility 	totalTime 	21.8
scalar RSUScenario.node[6].veinsmobility 	stopTime 	40
scalar RSUScenario.node[6].veinsmobility 	minSpeed 	6.9722984143209e-05
scalar RSUScenario.node[6].veinsmobility 	maxSpeed 	10.901878934995
scalar RSUScenario.node[6].veinsmobility 	totalDistance 	61.895419924096
scalar RSUScenario.node[6].veinsmobility 	totalCO2Emission 	39.163910086956
scalar RSUScenario.node[7].nic.phy80211p 	busyTime 	8.3809523809519e-05
scalar RSUScenario.node[7].nic.mac1609_4 	throughputMetricMac 	0.26540538952933
scalar RSUScenario.node[7].nic.mac1609_4 	throughputMbps 	0.00033971889859755
scalar RSUScenario.node[7].nic.mac1609_4 	throughputControlMbps 	0
scalar RSUScenario.node[7].nic.mac1609_4 	ReceivedUnicastPackets 	0
scalar RSUScenario.node[7].nic.mac1609_4 	ReceivedBroadcasts 	6
scalar RSUScenario.node[7].nic.mac1609_4 	SentPackets 	1
scalar RSUScenario.node[7].nic.mac1609_4 	SNIRLostPackets 	0
scalar RSUScenario.node[7].nic.mac1609_4 	RXTXLostPackets 	1
scalar RSUScenario.node[7].nic.mac1609_4 	TotalLostPackets 	1
scalar RSUScenario.node[7].nic.mac1609_4 	DroppedPacketsInMac 	0
scalar RSUScenario.node[7].nic.mac1609_4 	TooLittleTime 	0
scalar RSUScenario.node[7].nic.mac1609_4 	TimesIntoBackoff 	2
scalar RSUScenario.node[7].nic.mac1609_4 	SlotsBackoff 	8
scalar RSUScenario.node[7].nic.mac1609_4 	NumInternalContention 	0
scalar RSUScenario.node[7].nic.mac1609_4 	totalBusyTime 	0.001849
scalar RSUScenario.node[7].nic.mac1609_4 	throughputMetricMac:last 	0.26540538952933
attr source  throughputSignalMac
attr title  "throughputMetricMac, last"
scalar RSUScenario.node[7].nic.mac1609_4 	throughputMetricMac:count 	6
attr source  throughputSignalMac
attr title  "throughputMetricMac, count"
scalar RSUScenario.node[7].nic.mac1609_4 	throughputMetricMac:sum 	0.9289763014381
attr source  throughputSignalMac
attr title  "throughputMetricMac, sum"
scalar RSUScenario.node[7].nic.mac1609_4 	throughputMetricMac:mean 	0.15482938357302
attr source  throughputSignalMac
attr title  "throughputMetricMac, mean"
scalar RSUScenario.node[7].veinsmobility 	startTime 	21.1
scalar RSUScenario.node[7].veinsmobility 	totalTime 	18.8
scalar RSUScenario.node[7].veinsmobility 	stopTime 	40
scalar RSUScenario.node[7].veinsmobility 	minSpeed 	0.00063154537792508
scalar RSUScenario.node[7].veinsmobility 	maxSpeed 	10.070558115304
scalar RSUScenario.node[7].veinsmobility 	totalDistance 	54.394381411087
scalar RSUScenario.node[7].veinsmobility 	totalCO2Emission 	33.520714422562
scalar RSUScenario.node[8].nic.phy80211p 	busyTime 	0
scalar RSUScenario.node[8].nic.mac1609_4 	throughputMetricMac 	0
scalar RSUScenario.node[8].nic.mac1609_4 	throughputMbps 	0
scalar RSUScenario.node[8].nic.mac1609_4 	throughputControlMbps 	0
scalar RSUScenario.node[8].nic.mac1609_4 	ReceivedUnicastPackets 	0
scalar RSUScenario.node[8].nic.mac1609_4 	ReceivedBroadcasts 	0
scalar RSUScenario.node[8].nic.mac1609_4 	SentPackets 	0
scalar RSUScenario.node[8].nic.mac1609_4 	SNIRLostPackets 	0
scalar RSUScenario.node[8].nic.mac1609_4 	RXTXLostPackets 	0
scalar RSUScenario.node[8].nic.mac1609_4 	TotalLostPackets 	0
scalar RSUScenario.node[8].nic.mac1609_4 	DroppedPacketsInMac 	0
scalar RSUScenario.node[8].nic.mac1609_4 	TooLittleTime 	0
scalar RSUScenario.node[8].nic.mac1609_4 	TimesIntoBackoff 	0
scalar RSUScenario.node[8].nic.mac1609_4 	SlotsBackoff 	0
scalar RSUScenario.node[8].nic.mac1609_4 	NumInternalContention 	0
scalar RSUScenario.node[8].nic.mac1609_4 	totalBusyTime 	0
scalar RSUScenario.node[8].nic.mac1609_4 	throughputMetricMac:last 	-nan
attr source  throughputSignalMac
attr title  "throughputMetricMac, last"
scalar RSUScenario.node[8].nic.mac1609_4 	throughputMetricMac:count 	0
attr source  throughputSignalMac
attr title  "throughputMetricMac, count"
scalar RSUScenario.node[8].nic.mac1609_4 	throughputMetricMac:sum 	0
attr source  throughputSignalMac
attr title  "throughputMetricMac, sum"
scalar RSUScenario.node[8].nic.mac1609_4 	throughputMetricMac:mean 	-nan
attr source  throughputSignalMac
attr title  "throughputMetricMac, mean"
scalar RSUScenario.node[8].veinsmobility 	startTime 	24.1
scalar RSUScenario.node[8].veinsmobility 	totalTime 	15.8
scalar RSUScenario.node[8].veinsmobility 	stopTime 	40
scalar RSUScenario.node[8].veinsmobility 	minSpeed 	0.0053259206768727
scalar RSUScenario.node[8].veinsmobility 	maxSpeed 	9.267943583463
scalar RSUScenario.node[8].veinsmobility 	totalDistance 	46.893998258436
scalar RSUScenario.node[8].veinsmobility 	totalCO2Emission 	28.134056874113
scalar RSUScenario.node[9].nic.phy80211p 	busyTime 	0
scalar RSUScenario.node[9].nic.mac1609_4 	throughputMetricMac 	0
scalar RSUScenario.node[9].nic.mac1609_4 	throughputMbps 	0
scalar RSUScenario.node[9].nic.mac1609_4 	throughputControlMbps 	0
scalar RSUScenario.node[9].nic.mac1609_4 	ReceivedUnicastPackets 	0
scalar RSUScenario.node[9].nic.mac1609_4 	ReceivedBroadcasts 	0
scalar RSUScenario.node[9].nic.mac1609_4 	SentPackets 	0
scalar RSUScenario.node[9].nic.mac1609_4 	SNIRLostPackets 	0
scalar RSUScenario.node[9].nic.mac1609_4 	RXTXLostPackets 	0
scalar RSUScenario.node[9].nic.mac1609_4 	TotalLostPackets 	0
scalar RSUScenario.node[9].nic.mac1609_4 	DroppedPacketsInMac 	0
scalar RSUScenario.node[9].nic.mac1609_4 	TooLittleTime 	0
scalar RSUScenario.node[9].nic.mac1609_4 	TimesIntoBackoff 	0
scalar RSUScenario.node[9].nic.mac1609_4 	SlotsBackoff 	0
scalar RSUScenario.node[9].nic.mac1609_4 	NumInternalContention 	0
scalar RSUScenario.node[9].nic.mac1609_4 	totalBusyTime 	0
scalar RSUScenario.node[9].nic.mac1609_4 	throughputMetricMac:last 	-nan
attr source  throughputSignalMac
attr title  "throughputMetricMac, last"
scalar RSUScenario.node[9].nic.mac1609_4 	throughputMetricMac:count 	0
attr source  throughputSignalMac
attr title  "throughputMetricMac, count"
scalar RSUScenario.node[9].nic.mac1609_4 	throughputMetricMac:sum 	0
attr source  throughputSignalMac
attr title  "throughputMetricMac, sum"
scalar RSUScenario.node[9].nic.mac1609_4 	throughputMetricMac:mean 	-nan
attr source  throughputSignalMac
attr title  "throughputMetricMac, mean"
scalar RSUScenario.node[9].veinsmobility 	startTime 	27.1
scalar RSUScenario.node[9].veinsmobility 	totalTime 	12.8
scalar RSUScenario.node[9].veinsmobility 	stopTime 	40
scalar RSUScenario.node[9].veinsmobility 	minSpeed 	0.041202538453762
scalar RSUScenario.node[9].veinsmobility 	maxSpeed 	8.244793664971
scalar RSUScenario.node[9].veinsmobility 	totalDistance 	39.351925807277
scalar RSUScenario.node[9].veinsmobility 	totalCO2Emission 	22.435264066485
scalar RSUScenario.rsu[0].nic.phy80211p 	busyTime 	2.64e-05
scalar RSUScenario.rsu[0].nic.mac1609_4 	ReceivedUnicastPackets 	0
scalar RSUScenario.rsu[0].nic.mac1609_4 	ReceivedBroadcasts 	4
scalar RSUScenario.rsu[0].nic.mac1609_4 	SentPackets 	1
scalar RSUScenario.rsu[0].nic.mac1609_4 	SNIRLostPackets 	0
scalar RSUScenario.rsu[0].nic.mac1609_4 	RXTXLostPackets 	0
scalar RSUScenario.rsu[0].nic.mac1609_4 	TotalLostPackets 	0
scalar RSUScenario.rsu[0].nic.mac1609_4 	DroppedPacketsInMac 	0
scalar RSUScenario.rsu[0].nic.mac1609_4 	TooLittleTime 	0
scalar RSUScenario.rsu[0].nic.mac1609_4 	TimesIntoBackoff 	1
scalar RSUScenario.rsu[0].nic.mac1609_4 	SlotsBackoff 	0
scalar RSUScenario.rsu[0].nic.mac1609_4 	NumInternalContention 	0
scalar RSUScenario.rsu[0].nic.mac1609_4 	totalBusyTime 	0.001321
scalar RSUScenario.metricsApplication.metrics 	packetsDeliveredToMetrics 	40
scalar RSUScenario.metricsApplication.metrics 	throughputMetric 	1.025641025641
scalar RSUScenario.metricsApplication.metrics 	throughputMetric:last 	1.025641025641
attr source  throughputSignal
attr title  "throughputMetric, last"
scalar RSUScenario.metricsApplication.metrics 	throughputMetric:count 	40
attr source  throughputSignal
attr title  "throughputMetric, count"
scalar RSUScenario.metricsApplication.metrics 	throughputMetric:sum 	43.253543038936
attr source  throughputSignal
attr title  "throughputMetric, sum"
scalar RSUScenario.metricsApplication.metrics 	throughputMetric:mean 	1.0813385759734
attr source  throughputSignal
attr title  "throughputMetric, mean"
scalar RSUScenario.metricsApplication.nic.phy80211p 	busyTime 	0
scalar RSUScenario.metricsApplication.nic.mac1609_4 	ReceivedUnicastPackets 	0
scalar RSUScenario.metricsApplication.nic.mac1609_4 	ReceivedBroadcasts 	0
scalar RSUScenario.metricsApplication.nic.mac1609_4 	SentPackets 	0
scalar RSUScenario.metricsApplication.nic.mac1609_4 	SNIRLostPackets 	0
scalar RSUScenario.metricsApplication.nic.mac1609_4 	RXTXLostPackets 	0
scalar RSUScenario.metricsApplication.nic.mac1609_4 	TotalLostPackets 	0
scalar RSUScenario.metricsApplication.nic.mac1609_4 	DroppedPacketsInMac 	0
scalar RSUScenario.metricsApplication.nic.mac1609_4 	TooLittleTime 	0
scalar RSUScenario.metricsApplication.nic.mac1609_4 	TimesIntoBackoff 	0
scalar RSUScenario.metricsApplication.nic.mac1609_4 	SlotsBackoff 	0
scalar RSUScenario.metricsApplication.nic.mac1609_4 	NumInternalContention 	0
scalar RSUScenario.metricsApplication.nic.mac1609_4 	totalBusyTime 	0
