version 2
run SingleCH_Safety_B_400Bytes_P_1000Bytes_Q_1-0-20160411-14:30:44-8853
attr configname SingleCH_Safety_B_400Bytes_P_1000Bytes_Q_1
attr datetime 20160411-14:30:44
attr experiment SingleCH_Safety_B_400Bytes_P_1000Bytes_Q_1
attr inifile omnetpp.ini
attr iterationvars $0=1
attr iterationvars2 "$0=1, $repetition=0"
attr measurement $0=1
attr network RSUScenario
attr processid 8853
attr repetition 0
attr replication #0
attr resultdir results
attr runnumber 0
attr seedset 0

scalar RSUScenario.node[0].nic.phy80211p 	busyTime 	0.072003961981008
scalar RSUScenario.node[0].nic.mac1609_4 	throughputMetricMac 	114.32002545839
scalar RSUScenario.node[0].nic.mac1609_4 	throughputMbps 	0.39539122026985
scalar RSUScenario.node[0].nic.mac1609_4 	throughputControlMbps 	0
scalar RSUScenario.node[0].nic.mac1609_4 	ReceivedUnicastPackets 	0
scalar RSUScenario.node[0].nic.mac1609_4 	ReceivedBroadcasts 	22857
scalar RSUScenario.node[0].nic.mac1609_4 	SentPackets 	2000
scalar RSUScenario.node[0].nic.mac1609_4 	SNIRLostPackets 	191
scalar RSUScenario.node[0].nic.mac1609_4 	RXTXLostPackets 	0
scalar RSUScenario.node[0].nic.mac1609_4 	TotalLostPackets 	191
scalar RSUScenario.node[0].nic.mac1609_4 	DroppedPacketsInMac 	0
scalar RSUScenario.node[0].nic.mac1609_4 	TooLittleTime 	0
scalar RSUScenario.node[0].nic.mac1609_4 	TimesIntoBackoff 	2001
scalar RSUScenario.node[0].nic.mac1609_4 	SlotsBackoff 	2987
scalar RSUScenario.node[0].nic.mac1609_4 	NumInternalContention 	0
scalar RSUScenario.node[0].nic.mac1609_4 	totalBusyTime 	15.576824000052
scalar RSUScenario.node[0].nic.mac1609_4 	throughputMetricMac:last 	114.32002545839
attr source  throughputSignalMac
attr title  "throughputMetricMac, last"
scalar RSUScenario.node[0].nic.mac1609_4 	throughputMetricMac:count 	22857
attr source  throughputSignalMac
attr title  "throughputMetricMac, count"
scalar RSUScenario.node[0].nic.mac1609_4 	throughputMetricMac:sum 	2240673.5543951
attr source  throughputSignalMac
attr title  "throughputMetricMac, sum"
scalar RSUScenario.node[0].nic.mac1609_4 	throughputMetricMac:mean 	98.03008069279
attr source  throughputSignalMac
attr title  "throughputMetricMac, mean"
scalar RSUScenario.node[0].veinsmobility 	startTime 	0.1
scalar RSUScenario.node[0].veinsmobility 	totalTime 	199.8
scalar RSUScenario.node[0].veinsmobility 	stopTime 	200
scalar RSUScenario.node[0].veinsmobility 	minSpeed 	0
scalar RSUScenario.node[0].veinsmobility 	maxSpeed 	27.779501384608
scalar RSUScenario.node[0].veinsmobility 	totalDistance 	2894.8712277524
scalar RSUScenario.node[0].veinsmobility 	totalCO2Emission 	681.47074204162
scalar RSUScenario.node[5].nic.phy80211p 	busyTime 	0.094064487651072
scalar RSUScenario.node[5].nic.mac1609_4 	throughputMetricMac 	140.90140756106
scalar RSUScenario.node[5].nic.mac1609_4 	throughputMbps 	0.48725647304901
scalar RSUScenario.node[5].nic.mac1609_4 	throughputControlMbps 	0
scalar RSUScenario.node[5].nic.mac1609_4 	ReceivedUnicastPackets 	0
scalar RSUScenario.node[5].nic.mac1609_4 	ReceivedBroadcasts 	28172
scalar RSUScenario.node[5].nic.mac1609_4 	SentPackets 	1904
scalar RSUScenario.node[5].nic.mac1609_4 	SNIRLostPackets 	496
scalar RSUScenario.node[5].nic.mac1609_4 	RXTXLostPackets 	0
scalar RSUScenario.node[5].nic.mac1609_4 	TotalLostPackets 	496
scalar RSUScenario.node[5].nic.mac1609_4 	DroppedPacketsInMac 	0
scalar RSUScenario.node[5].nic.mac1609_4 	TooLittleTime 	0
scalar RSUScenario.node[5].nic.mac1609_4 	TimesIntoBackoff 	3756
scalar RSUScenario.node[5].nic.mac1609_4 	SlotsBackoff 	5603
scalar RSUScenario.node[5].nic.mac1609_4 	NumInternalContention 	0
scalar RSUScenario.node[5].nic.mac1609_4 	totalBusyTime 	18.909501795514
scalar RSUScenario.node[5].nic.mac1609_4 	throughputMetricMac:last 	140.90140756106
attr source  throughputSignalMac
attr title  "throughputMetricMac, last"
scalar RSUScenario.node[5].nic.mac1609_4 	throughputMetricMac:count 	28172
attr source  throughputSignalMac
attr title  "throughputMetricMac, count"
scalar RSUScenario.node[5].nic.mac1609_4 	throughputMetricMac:sum 	3165184.8325569
attr source  throughputSignalMac
attr title  "throughputMetricMac, sum"
scalar RSUScenario.node[5].nic.mac1609_4 	throughputMetricMac:mean 	112.35215222764
attr source  throughputSignalMac
attr title  "throughputMetricMac, mean"
scalar RSUScenario.node[5].veinsmobility 	startTime 	9.7
scalar RSUScenario.node[5].veinsmobility 	totalTime 	190.2
scalar RSUScenario.node[5].veinsmobility 	stopTime 	200
scalar RSUScenario.node[5].veinsmobility 	minSpeed 	3.4492463285946e-07
scalar RSUScenario.node[5].veinsmobility 	maxSpeed 	27.779228442793
scalar RSUScenario.node[5].veinsmobility 	totalDistance 	2630.4417924214
scalar RSUScenario.node[5].veinsmobility 	totalCO2Emission 	634.56039193211
scalar RSUScenario.node[14].nic.phy80211p 	busyTime 	0.11106350941104
scalar RSUScenario.node[14].nic.mac1609_4 	throughputMetricMac 	140.85139265431
scalar RSUScenario.node[14].nic.mac1609_4 	throughputMbps 	0.48704649061901
scalar RSUScenario.node[14].nic.mac1609_4 	throughputControlMbps 	0
scalar RSUScenario.node[14].nic.mac1609_4 	ReceivedUnicastPackets 	0
scalar RSUScenario.node[14].nic.mac1609_4 	ReceivedBroadcasts 	28162
scalar RSUScenario.node[14].nic.mac1609_4 	SentPackets 	1648
scalar RSUScenario.node[14].nic.mac1609_4 	SNIRLostPackets 	1128
scalar RSUScenario.node[14].nic.mac1609_4 	RXTXLostPackets 	0
scalar RSUScenario.node[14].nic.mac1609_4 	TotalLostPackets 	1128
scalar RSUScenario.node[14].nic.mac1609_4 	DroppedPacketsInMac 	0
scalar RSUScenario.node[14].nic.mac1609_4 	TooLittleTime 	0
scalar RSUScenario.node[14].nic.mac1609_4 	TimesIntoBackoff 	1648
scalar RSUScenario.node[14].nic.mac1609_4 	SlotsBackoff 	2581
scalar RSUScenario.node[14].nic.mac1609_4 	NumInternalContention 	0
scalar RSUScenario.node[14].nic.mac1609_4 	totalBusyTime 	18.893990005614
scalar RSUScenario.node[14].nic.mac1609_4 	throughputMetricMac:last 	140.85139265431
attr source  throughputSignalMac
attr title  "throughputMetricMac, last"
scalar RSUScenario.node[14].nic.mac1609_4 	throughputMetricMac:count 	28162
attr source  throughputSignalMac
attr title  "throughputMetricMac, count"
scalar RSUScenario.node[14].nic.mac1609_4 	throughputMetricMac:sum 	2911453.0716065
attr source  throughputSignalMac
attr title  "throughputMetricMac, sum"
scalar RSUScenario.node[14].nic.mac1609_4 	throughputMetricMac:mean 	103.38232624127
attr source  throughputSignalMac
attr title  "throughputMetricMac, mean"
scalar RSUScenario.node[14].veinsmobility 	startTime 	35.3
scalar RSUScenario.node[14].veinsmobility 	totalTime 	164.6
scalar RSUScenario.node[14].veinsmobility 	stopTime 	200
scalar RSUScenario.node[14].veinsmobility 	minSpeed 	2.8765002654245e-10
scalar RSUScenario.node[14].veinsmobility 	maxSpeed 	27.77995088157
scalar RSUScenario.node[14].veinsmobility 	totalDistance 	2163.763301336
scalar RSUScenario.node[14].veinsmobility 	totalCO2Emission 	560.68462810377
scalar RSUScenario.node[15].nic.phy80211p 	busyTime 	0.11529457294032
scalar RSUScenario.node[15].nic.mac1609_4 	throughputMetricMac 	115.36871255536
scalar RSUScenario.node[15].nic.mac1609_4 	throughputMbps 	0.39890631838749
scalar RSUScenario.node[15].nic.mac1609_4 	throughputControlMbps 	0
scalar RSUScenario.node[15].nic.mac1609_4 	ReceivedUnicastPackets 	0
scalar RSUScenario.node[15].nic.mac1609_4 	ReceivedBroadcasts 	23068
scalar RSUScenario.node[15].nic.mac1609_4 	SentPackets 	1324
scalar RSUScenario.node[15].nic.mac1609_4 	SNIRLostPackets 	1360
scalar RSUScenario.node[15].nic.mac1609_4 	RXTXLostPackets 	1
scalar RSUScenario.node[15].nic.mac1609_4 	TotalLostPackets 	1361
scalar RSUScenario.node[15].nic.mac1609_4 	DroppedPacketsInMac 	0
scalar RSUScenario.node[15].nic.mac1609_4 	TooLittleTime 	0
scalar RSUScenario.node[15].nic.mac1609_4 	TimesIntoBackoff 	1325
scalar RSUScenario.node[15].nic.mac1609_4 	SlotsBackoff 	2030
scalar RSUScenario.node[15].nic.mac1609_4 	NumInternalContention 	0
scalar RSUScenario.node[15].nic.mac1609_4 	totalBusyTime 	15.580172618402
scalar RSUScenario.node[15].nic.mac1609_4 	throughputMetricMac:last 	115.36871255536
attr source  throughputSignalMac
attr title  "throughputMetricMac, last"
scalar RSUScenario.node[15].nic.mac1609_4 	throughputMetricMac:count 	23068
attr source  throughputSignalMac
attr title  "throughputMetricMac, count"
scalar RSUScenario.node[15].nic.mac1609_4 	throughputMetricMac:sum 	1770984.4979383
attr source  throughputSignalMac
attr title  "throughputMetricMac, sum"
scalar RSUScenario.node[15].nic.mac1609_4 	throughputMetricMac:mean 	76.772346884788
attr source  throughputSignalMac
attr title  "throughputMetricMac, mean"
scalar RSUScenario.node[15].veinsmobility 	startTime 	67.7
scalar RSUScenario.node[15].veinsmobility 	totalTime 	132.2
scalar RSUScenario.node[15].veinsmobility 	stopTime 	200
scalar RSUScenario.node[15].veinsmobility 	minSpeed 	0.25430879177246
scalar RSUScenario.node[15].veinsmobility 	maxSpeed 	27.779609111873
scalar RSUScenario.node[15].veinsmobility 	totalDistance 	2101.6102821188
scalar RSUScenario.node[15].veinsmobility 	totalCO2Emission 	517.73516903683
scalar RSUScenario.node[16].nic.phy80211p 	busyTime 	0.11356447185816
scalar RSUScenario.node[16].nic.mac1609_4 	throughputMetricMac 	110.62253142182
scalar RSUScenario.node[16].nic.mac1609_4 	throughputMbps 	0.38250351639013
scalar RSUScenario.node[16].nic.mac1609_4 	throughputControlMbps 	0
scalar RSUScenario.node[16].nic.mac1609_4 	ReceivedUnicastPackets 	0
scalar RSUScenario.node[16].nic.mac1609_4 	ReceivedBroadcasts 	22119
scalar RSUScenario.node[16].nic.mac1609_4 	SentPackets 	1298
scalar RSUScenario.node[16].nic.mac1609_4 	SNIRLostPackets 	1469
scalar RSUScenario.node[16].nic.mac1609_4 	RXTXLostPackets 	1
scalar RSUScenario.node[16].nic.mac1609_4 	TotalLostPackets 	1470
scalar RSUScenario.node[16].nic.mac1609_4 	DroppedPacketsInMac 	0
scalar RSUScenario.node[16].nic.mac1609_4 	TooLittleTime 	0
scalar RSUScenario.node[16].nic.mac1609_4 	TimesIntoBackoff 	1299
scalar RSUScenario.node[16].nic.mac1609_4 	SlotsBackoff 	1906
scalar RSUScenario.node[16].nic.mac1609_4 	NumInternalContention 	0
scalar RSUScenario.node[16].nic.mac1609_4 	totalBusyTime 	15.019795688526
scalar RSUScenario.node[16].nic.mac1609_4 	throughputMetricMac:last 	110.62253142182
attr source  throughputSignalMac
attr title  "throughputMetricMac, last"
scalar RSUScenario.node[16].nic.mac1609_4 	throughputMetricMac:count 	22119
attr source  throughputSignalMac
attr title  "throughputMetricMac, count"
scalar RSUScenario.node[16].nic.mac1609_4 	throughputMetricMac:sum 	1612636.9741824
attr source  throughputSignalMac
attr title  "throughputMetricMac, sum"
scalar RSUScenario.node[16].nic.mac1609_4 	throughputMetricMac:mean 	72.907318331859
attr source  throughputSignalMac
attr title  "throughputMetricMac, mean"
scalar RSUScenario.node[16].veinsmobility 	startTime 	70.3
scalar RSUScenario.node[16].veinsmobility 	totalTime 	129.6
scalar RSUScenario.node[16].veinsmobility 	stopTime 	200
scalar RSUScenario.node[16].veinsmobility 	minSpeed 	0.25604540406028
scalar RSUScenario.node[16].veinsmobility 	maxSpeed 	27.779562298502
scalar RSUScenario.node[16].veinsmobility 	totalDistance 	2059.1423880304
scalar RSUScenario.node[16].veinsmobility 	totalCO2Emission 	512.60369693963
scalar RSUScenario.node[17].nic.phy80211p 	busyTime 	0.11153713385829
scalar RSUScenario.node[17].nic.mac1609_4 	throughputMetricMac 	105.23619095519
scalar RSUScenario.node[17].nic.mac1609_4 	throughputMbps 	0.36386431776303
scalar RSUScenario.node[17].nic.mac1609_4 	throughputControlMbps 	0
scalar RSUScenario.node[17].nic.mac1609_4 	ReceivedUnicastPackets 	0
scalar RSUScenario.node[17].nic.mac1609_4 	ReceivedBroadcasts 	21042
scalar RSUScenario.node[17].nic.mac1609_4 	SentPackets 	1271
scalar RSUScenario.node[17].nic.mac1609_4 	SNIRLostPackets 	1642
scalar RSUScenario.node[17].nic.mac1609_4 	RXTXLostPackets 	6
scalar RSUScenario.node[17].nic.mac1609_4 	TotalLostPackets 	1648
scalar RSUScenario.node[17].nic.mac1609_4 	DroppedPacketsInMac 	0
scalar RSUScenario.node[17].nic.mac1609_4 	TooLittleTime 	0
scalar RSUScenario.node[17].nic.mac1609_4 	TimesIntoBackoff 	1600
scalar RSUScenario.node[17].nic.mac1609_4 	SlotsBackoff 	2354
scalar RSUScenario.node[17].nic.mac1609_4 	NumInternalContention 	0
scalar RSUScenario.node[17].nic.mac1609_4 	totalBusyTime 	14.419481674145
scalar RSUScenario.node[17].nic.mac1609_4 	throughputMetricMac:last 	105.23619095519
attr source  throughputSignalMac
attr title  "throughputMetricMac, last"
scalar RSUScenario.node[17].nic.mac1609_4 	throughputMetricMac:count 	21042
attr source  throughputSignalMac
attr title  "throughputMetricMac, count"
scalar RSUScenario.node[17].nic.mac1609_4 	throughputMetricMac:sum 	1446919.6133841
attr source  throughputSignalMac
attr title  "throughputMetricMac, sum"
scalar RSUScenario.node[17].nic.mac1609_4 	throughputMetricMac:mean 	68.763407156359
attr source  throughputSignalMac
attr title  "throughputMetricMac, mean"
scalar RSUScenario.node[17].veinsmobility 	startTime 	73
scalar RSUScenario.node[17].veinsmobility 	totalTime 	126.9
scalar RSUScenario.node[17].veinsmobility 	stopTime 	200
scalar RSUScenario.node[17].veinsmobility 	minSpeed 	0.25361050302675
scalar RSUScenario.node[17].veinsmobility 	maxSpeed 	27.779782709777
scalar RSUScenario.node[17].veinsmobility 	totalDistance 	2008.1835107577
scalar RSUScenario.node[17].veinsmobility 	totalCO2Emission 	504.10705264016
scalar RSUScenario.node[18].nic.phy80211p 	busyTime 	0.10905666934838
scalar RSUScenario.node[18].nic.mac1609_4 	throughputMetricMac 	99.664804435694
scalar RSUScenario.node[18].nic.mac1609_4 	throughputMbps 	0.34458559997719
scalar RSUScenario.node[18].nic.mac1609_4 	throughputControlMbps 	0
scalar RSUScenario.node[18].nic.mac1609_4 	ReceivedUnicastPackets 	0
scalar RSUScenario.node[18].nic.mac1609_4 	ReceivedBroadcasts 	19928
scalar RSUScenario.node[18].nic.mac1609_4 	SentPackets 	1244
scalar RSUScenario.node[18].nic.mac1609_4 	SNIRLostPackets 	1778
scalar RSUScenario.node[18].nic.mac1609_4 	RXTXLostPackets 	0
scalar RSUScenario.node[18].nic.mac1609_4 	TotalLostPackets 	1778
scalar RSUScenario.node[18].nic.mac1609_4 	DroppedPacketsInMac 	0
scalar RSUScenario.node[18].nic.mac1609_4 	TooLittleTime 	0
scalar RSUScenario.node[18].nic.mac1609_4 	TimesIntoBackoff 	1244
scalar RSUScenario.node[18].nic.mac1609_4 	SlotsBackoff 	1873
scalar RSUScenario.node[18].nic.mac1609_4 	NumInternalContention 	0
scalar RSUScenario.node[18].nic.mac1609_4 	totalBusyTime 	13.736421703661
scalar RSUScenario.node[18].nic.mac1609_4 	throughputMetricMac:last 	99.664804435694
attr source  throughputSignalMac
attr title  "throughputMetricMac, last"
scalar RSUScenario.node[18].nic.mac1609_4 	throughputMetricMac:count 	19928
attr source  throughputSignalMac
attr title  "throughputMetricMac, count"
scalar RSUScenario.node[18].nic.mac1609_4 	throughputMetricMac:sum 	1290803.7818264
attr source  throughputSignalMac
attr title  "throughputMetricMac, sum"
scalar RSUScenario.node[18].nic.mac1609_4 	throughputMetricMac:mean 	64.773373234965
attr source  throughputSignalMac
attr title  "throughputMetricMac, mean"
scalar RSUScenario.node[18].veinsmobility 	startTime 	75.7
scalar RSUScenario.node[18].veinsmobility 	totalTime 	124.2
scalar RSUScenario.node[18].veinsmobility 	stopTime 	200
scalar RSUScenario.node[18].veinsmobility 	minSpeed 	0.25714591522701
scalar RSUScenario.node[18].veinsmobility 	maxSpeed 	27.779895664898
scalar RSUScenario.node[18].veinsmobility 	totalDistance 	1958.2216683699
scalar RSUScenario.node[18].veinsmobility 	totalCO2Emission 	496.23400441297
scalar RSUScenario.node[19].nic.phy80211p 	busyTime 	0.10628995891539
scalar RSUScenario.node[19].nic.mac1609_4 	throughputMetricMac 	93.323226225699
scalar RSUScenario.node[19].nic.mac1609_4 	throughputMbps 	0.32266910568356
scalar RSUScenario.node[19].nic.mac1609_4 	throughputControlMbps 	0
scalar RSUScenario.node[19].nic.mac1609_4 	ReceivedUnicastPackets 	0
scalar RSUScenario.node[19].nic.mac1609_4 	ReceivedBroadcasts 	18660
scalar RSUScenario.node[19].nic.mac1609_4 	SentPackets 	1218
scalar RSUScenario.node[19].nic.mac1609_4 	SNIRLostPackets 	2052
scalar RSUScenario.node[19].nic.mac1609_4 	RXTXLostPackets 	0
scalar RSUScenario.node[19].nic.mac1609_4 	TotalLostPackets 	2052
scalar RSUScenario.node[19].nic.mac1609_4 	DroppedPacketsInMac 	0
scalar RSUScenario.node[19].nic.mac1609_4 	TooLittleTime 	0
scalar RSUScenario.node[19].nic.mac1609_4 	TimesIntoBackoff 	1219
scalar RSUScenario.node[19].nic.mac1609_4 	SlotsBackoff 	1830
scalar RSUScenario.node[19].nic.mac1609_4 	NumInternalContention 	0
scalar RSUScenario.node[19].nic.mac1609_4 	totalBusyTime 	13.035581891874
scalar RSUScenario.node[19].nic.mac1609_4 	throughputMetricMac:last 	93.323226225699
attr source  throughputSignalMac
attr title  "throughputMetricMac, last"
scalar RSUScenario.node[19].nic.mac1609_4 	throughputMetricMac:count 	18660
attr source  throughputSignalMac
attr title  "throughputMetricMac, count"
scalar RSUScenario.node[19].nic.mac1609_4 	throughputMetricMac:sum 	1127975.0500945
attr source  throughputSignalMac
attr title  "throughputMetricMac, sum"
scalar RSUScenario.node[19].nic.mac1609_4 	throughputMetricMac:mean 	60.448823692096
attr source  throughputSignalMac
attr title  "throughputMetricMac, mean"
scalar RSUScenario.node[19].veinsmobility 	startTime 	78.3
scalar RSUScenario.node[19].veinsmobility 	totalTime 	121.6
scalar RSUScenario.node[19].veinsmobility 	stopTime 	200
scalar RSUScenario.node[19].veinsmobility 	minSpeed 	0.24815581214405
scalar RSUScenario.node[19].veinsmobility 	maxSpeed 	27.778576476357
scalar RSUScenario.node[19].veinsmobility 	totalDistance 	1909.0344228799
scalar RSUScenario.node[19].veinsmobility 	totalCO2Emission 	488.36381720563
scalar RSUScenario.node[20].nic.phy80211p 	busyTime 	0.094919529411786
scalar RSUScenario.node[20].nic.mac1609_4 	throughputMetricMac 	86.216458433243
scalar RSUScenario.node[20].nic.mac1609_4 	throughputMbps 	0.29822814606866
scalar RSUScenario.node[20].nic.mac1609_4 	throughputControlMbps 	0
scalar RSUScenario.node[20].nic.mac1609_4 	ReceivedUnicastPackets 	0
scalar RSUScenario.node[20].nic.mac1609_4 	ReceivedBroadcasts 	17239
scalar RSUScenario.node[20].nic.mac1609_4 	SentPackets 	1191
scalar RSUScenario.node[20].nic.mac1609_4 	SNIRLostPackets 	807
scalar RSUScenario.node[20].nic.mac1609_4 	RXTXLostPackets 	161
scalar RSUScenario.node[20].nic.mac1609_4 	TotalLostPackets 	968
scalar RSUScenario.node[20].nic.mac1609_4 	DroppedPacketsInMac 	0
scalar RSUScenario.node[20].nic.mac1609_4 	TooLittleTime 	0
scalar RSUScenario.node[20].nic.mac1609_4 	TimesIntoBackoff 	1844
scalar RSUScenario.node[20].nic.mac1609_4 	SlotsBackoff 	2814
scalar RSUScenario.node[20].nic.mac1609_4 	NumInternalContention 	0
scalar RSUScenario.node[20].nic.mac1609_4 	totalBusyTime 	11.756429117807
scalar RSUScenario.node[20].nic.mac1609_4 	throughputMetricMac:last 	86.216458433243
attr source  throughputSignalMac
attr title  "throughputMetricMac, last"
scalar RSUScenario.node[20].nic.mac1609_4 	throughputMetricMac:count 	17239
attr source  throughputSignalMac
attr title  "throughputMetricMac, count"
scalar RSUScenario.node[20].nic.mac1609_4 	throughputMetricMac:sum 	970080.59377712
attr source  throughputSignalMac
attr title  "throughputMetricMac, sum"
scalar RSUScenario.node[20].nic.mac1609_4 	throughputMetricMac:mean 	56.272440035798
attr source  throughputSignalMac
attr title  "throughputMetricMac, mean"
scalar RSUScenario.node[20].veinsmobility 	startTime 	81
scalar RSUScenario.node[20].veinsmobility 	totalTime 	118.9
scalar RSUScenario.node[20].veinsmobility 	stopTime 	200
scalar RSUScenario.node[20].veinsmobility 	minSpeed 	0
scalar RSUScenario.node[20].veinsmobility 	maxSpeed 	27.776711394712
scalar RSUScenario.node[20].veinsmobility 	totalDistance 	1255.2286971853
scalar RSUScenario.node[20].veinsmobility 	totalCO2Emission 	425.48838566954
scalar RSUScenario.node[21].nic.phy80211p 	busyTime 	0.095223800515929
scalar RSUScenario.node[21].nic.mac1609_4 	throughputMetricMac 	84.570753261853
scalar RSUScenario.node[21].nic.mac1609_4 	throughputMbps 	0.29256459396414
scalar RSUScenario.node[21].nic.mac1609_4 	throughputControlMbps 	0
scalar RSUScenario.node[21].nic.mac1609_4 	ReceivedUnicastPackets 	0
scalar RSUScenario.node[21].nic.mac1609_4 	ReceivedBroadcasts 	16910
scalar RSUScenario.node[21].nic.mac1609_4 	SentPackets 	1164
scalar RSUScenario.node[21].nic.mac1609_4 	SNIRLostPackets 	812
scalar RSUScenario.node[21].nic.mac1609_4 	RXTXLostPackets 	0
scalar RSUScenario.node[21].nic.mac1609_4 	TotalLostPackets 	812
scalar RSUScenario.node[21].nic.mac1609_4 	DroppedPacketsInMac 	0
scalar RSUScenario.node[21].nic.mac1609_4 	TooLittleTime 	0
scalar RSUScenario.node[21].nic.mac1609_4 	TimesIntoBackoff 	1165
scalar RSUScenario.node[21].nic.mac1609_4 	SlotsBackoff 	1692
scalar RSUScenario.node[21].nic.mac1609_4 	NumInternalContention 	0
scalar RSUScenario.node[21].nic.mac1609_4 	totalBusyTime 	11.502870278216
scalar RSUScenario.node[21].nic.mac1609_4 	throughputMetricMac:last 	84.570753261853
attr source  throughputSignalMac
attr title  "throughputMetricMac, last"
scalar RSUScenario.node[21].nic.mac1609_4 	throughputMetricMac:count 	16910
attr source  throughputSignalMac
attr title  "throughputMetricMac, count"
scalar RSUScenario.node[21].nic.mac1609_4 	throughputMetricMac:sum 	928136.38616292
attr source  throughputSignalMac
attr title  "throughputMetricMac, sum"
scalar RSUScenario.node[21].nic.mac1609_4 	throughputMetricMac:mean 	54.886835373325
attr source  throughputSignalMac
attr title  "throughputMetricMac, mean"
scalar RSUScenario.node[21].veinsmobility 	startTime 	83.7
scalar RSUScenario.node[21].veinsmobility 	totalTime 	116.2
scalar RSUScenario.node[21].veinsmobility 	stopTime 	200
scalar RSUScenario.node[21].veinsmobility 	minSpeed 	1.9848891243935e-12
scalar RSUScenario.node[21].veinsmobility 	maxSpeed 	27.768514805271
scalar RSUScenario.node[21].veinsmobility 	totalDistance 	1139.2009738081
scalar RSUScenario.node[21].veinsmobility 	totalCO2Emission 	409.2136060384
scalar RSUScenario.node[22].nic.phy80211p 	busyTime 	0.094699595426583
scalar RSUScenario.node[22].nic.mac1609_4 	throughputMetricMac 	83.515786309386
scalar RSUScenario.node[22].nic.mac1609_4 	throughputMbps 	0.28894263515849
scalar RSUScenario.node[22].nic.mac1609_4 	throughputControlMbps 	0
scalar RSUScenario.node[22].nic.mac1609_4 	ReceivedUnicastPackets 	0
scalar RSUScenario.node[22].nic.mac1609_4 	ReceivedBroadcasts 	16699
scalar RSUScenario.node[22].nic.mac1609_4 	SentPackets 	1138
scalar RSUScenario.node[22].nic.mac1609_4 	SNIRLostPackets 	502
scalar RSUScenario.node[22].nic.mac1609_4 	RXTXLostPackets 	33
scalar RSUScenario.node[22].nic.mac1609_4 	TotalLostPackets 	535
scalar RSUScenario.node[22].nic.mac1609_4 	DroppedPacketsInMac 	0
scalar RSUScenario.node[22].nic.mac1609_4 	TooLittleTime 	0
scalar RSUScenario.node[22].nic.mac1609_4 	TimesIntoBackoff 	1488
scalar RSUScenario.node[22].nic.mac1609_4 	SlotsBackoff 	2255
scalar RSUScenario.node[22].nic.mac1609_4 	NumInternalContention 	0
scalar RSUScenario.node[22].nic.mac1609_4 	totalBusyTime 	11.27286607975
scalar RSUScenario.node[22].nic.mac1609_4 	throughputMetricMac:last 	83.515786309386
attr source  throughputSignalMac
attr title  "throughputMetricMac, last"
scalar RSUScenario.node[22].nic.mac1609_4 	throughputMetricMac:count 	16699
attr source  throughputSignalMac
attr title  "throughputMetricMac, count"
scalar RSUScenario.node[22].nic.mac1609_4 	throughputMetricMac:sum 	901453.7133704
attr source  throughputSignalMac
attr title  "throughputMetricMac, sum"
scalar RSUScenario.node[22].nic.mac1609_4 	throughputMetricMac:mean 	53.982496758512
attr source  throughputSignalMac
attr title  "throughputMetricMac, mean"
scalar RSUScenario.node[22].veinsmobility 	startTime 	86.3
scalar RSUScenario.node[22].veinsmobility 	totalTime 	113.6
scalar RSUScenario.node[22].veinsmobility 	stopTime 	200
scalar RSUScenario.node[22].veinsmobility 	minSpeed 	6.2119809259411e-11
scalar RSUScenario.node[22].veinsmobility 	maxSpeed 	22.219553360699
scalar RSUScenario.node[22].veinsmobility 	totalDistance 	1056.9988266997
scalar RSUScenario.node[22].veinsmobility 	totalCO2Emission 	354.92394932215
scalar RSUScenario.node[23].nic.phy80211p 	busyTime 	0.094663546354656
scalar RSUScenario.node[23].nic.mac1609_4 	throughputMetricMac 	82.360498683062
scalar RSUScenario.node[23].nic.mac1609_4 	throughputMbps 	0.28494996112159
scalar RSUScenario.node[23].nic.mac1609_4 	throughputControlMbps 	0
scalar RSUScenario.node[23].nic.mac1609_4 	ReceivedUnicastPackets 	0
scalar RSUScenario.node[23].nic.mac1609_4 	ReceivedBroadcasts 	16468
scalar RSUScenario.node[23].nic.mac1609_4 	SentPackets 	1112
scalar RSUScenario.node[23].nic.mac1609_4 	SNIRLostPackets 	361
scalar RSUScenario.node[23].nic.mac1609_4 	RXTXLostPackets 	2
scalar RSUScenario.node[23].nic.mac1609_4 	TotalLostPackets 	363
scalar RSUScenario.node[23].nic.mac1609_4 	DroppedPacketsInMac 	0
scalar RSUScenario.node[23].nic.mac1609_4 	TooLittleTime 	0
scalar RSUScenario.node[23].nic.mac1609_4 	TimesIntoBackoff 	1113
scalar RSUScenario.node[23].nic.mac1609_4 	SlotsBackoff 	1680
scalar RSUScenario.node[23].nic.mac1609_4 	NumInternalContention 	0
scalar RSUScenario.node[23].nic.mac1609_4 	totalBusyTime 	11.07029618158
scalar RSUScenario.node[23].nic.mac1609_4 	throughputMetricMac:last 	82.360498683062
attr source  throughputSignalMac
attr title  "throughputMetricMac, last"
scalar RSUScenario.node[23].nic.mac1609_4 	throughputMetricMac:count 	16468
attr source  throughputSignalMac
attr title  "throughputMetricMac, count"
scalar RSUScenario.node[23].nic.mac1609_4 	throughputMetricMac:sum 	871770.13994665
attr source  throughputSignalMac
attr title  "throughputMetricMac, sum"
scalar RSUScenario.node[23].nic.mac1609_4 	throughputMetricMac:mean 	52.937220059913
attr source  throughputSignalMac
attr title  "throughputMetricMac, mean"
scalar RSUScenario.node[23].veinsmobility 	startTime 	88.9
scalar RSUScenario.node[23].veinsmobility 	totalTime 	111
scalar RSUScenario.node[23].veinsmobility 	stopTime 	200
scalar RSUScenario.node[23].veinsmobility 	minSpeed 	1.108414686105e-09
scalar RSUScenario.node[23].veinsmobility 	maxSpeed 	22.217862700217
scalar RSUScenario.node[23].veinsmobility 	totalDistance 	994.46200483466
scalar RSUScenario.node[23].veinsmobility 	totalCO2Emission 	315.57799641334
scalar RSUScenario.node[6].nic.phy80211p 	busyTime 	0.097789536494394
scalar RSUScenario.node[6].nic.mac1609_4 	throughputMetricMac 	143.62720872242
scalar RSUScenario.node[6].nic.mac1609_4 	throughputMbps 	0.49667684186289
scalar RSUScenario.node[6].nic.mac1609_4 	throughputControlMbps 	0
scalar RSUScenario.node[6].nic.mac1609_4 	ReceivedUnicastPackets 	0
scalar RSUScenario.node[6].nic.mac1609_4 	ReceivedBroadcasts 	28717
scalar RSUScenario.node[6].nic.mac1609_4 	SentPackets 	1878
scalar RSUScenario.node[6].nic.mac1609_4 	SNIRLostPackets 	677
scalar RSUScenario.node[6].nic.mac1609_4 	RXTXLostPackets 	0
scalar RSUScenario.node[6].nic.mac1609_4 	TotalLostPackets 	677
scalar RSUScenario.node[6].nic.mac1609_4 	DroppedPacketsInMac 	0
scalar RSUScenario.node[6].nic.mac1609_4 	TooLittleTime 	0
scalar RSUScenario.node[6].nic.mac1609_4 	TimesIntoBackoff 	1984
scalar RSUScenario.node[6].nic.mac1609_4 	SlotsBackoff 	2979
scalar RSUScenario.node[6].nic.mac1609_4 	NumInternalContention 	0
scalar RSUScenario.node[6].nic.mac1609_4 	totalBusyTime 	19.295918177302
scalar RSUScenario.node[6].nic.mac1609_4 	throughputMetricMac:last 	143.62720872242
attr source  throughputSignalMac
attr title  "throughputMetricMac, last"
scalar RSUScenario.node[6].nic.mac1609_4 	throughputMetricMac:count 	28717
attr source  throughputSignalMac
attr title  "throughputMetricMac, count"
scalar RSUScenario.node[6].nic.mac1609_4 	throughputMetricMac:sum 	3263791.3195876
attr source  throughputSignalMac
attr title  "throughputMetricMac, sum"
scalar RSUScenario.node[6].nic.mac1609_4 	throughputMetricMac:mean 	113.65363093595
attr source  throughputSignalMac
attr title  "throughputMetricMac, mean"
scalar RSUScenario.node[6].veinsmobility 	startTime 	12.3
scalar RSUScenario.node[6].veinsmobility 	totalTime 	187.6
scalar RSUScenario.node[6].veinsmobility 	stopTime 	200
scalar RSUScenario.node[6].veinsmobility 	minSpeed 	2.0538262791456e-06
scalar RSUScenario.node[6].veinsmobility 	maxSpeed 	27.77997836269
scalar RSUScenario.node[6].veinsmobility 	totalDistance 	2586.6935720308
scalar RSUScenario.node[6].veinsmobility 	totalCO2Emission 	625.2646278057
scalar RSUScenario.node[24].nic.phy80211p 	busyTime 	0.095005345622141
scalar RSUScenario.node[24].nic.mac1609_4 	throughputMetricMac 	80.440020644241
scalar RSUScenario.node[24].nic.mac1609_4 	throughputMbps 	0.2782887830444
scalar RSUScenario.node[24].nic.mac1609_4 	throughputControlMbps 	0
scalar RSUScenario.node[24].nic.mac1609_4 	ReceivedUnicastPackets 	0
scalar RSUScenario.node[24].nic.mac1609_4 	ReceivedBroadcasts 	16084
scalar RSUScenario.node[24].nic.mac1609_4 	SentPackets 	1086
scalar RSUScenario.node[24].nic.mac1609_4 	SNIRLostPackets 	411
scalar RSUScenario.node[24].nic.mac1609_4 	RXTXLostPackets 	1
scalar RSUScenario.node[24].nic.mac1609_4 	TotalLostPackets 	412
scalar RSUScenario.node[24].nic.mac1609_4 	DroppedPacketsInMac 	0
scalar RSUScenario.node[24].nic.mac1609_4 	TooLittleTime 	0
scalar RSUScenario.node[24].nic.mac1609_4 	TimesIntoBackoff 	1121
scalar RSUScenario.node[24].nic.mac1609_4 	SlotsBackoff 	1684
scalar RSUScenario.node[24].nic.mac1609_4 	NumInternalContention 	0
scalar RSUScenario.node[24].nic.mac1609_4 	totalBusyTime 	10.847746293549
scalar RSUScenario.node[24].nic.mac1609_4 	throughputMetricMac:last 	80.440020644241
attr source  throughputSignalMac
attr title  "throughputMetricMac, last"
scalar RSUScenario.node[24].nic.mac1609_4 	throughputMetricMac:count 	16084
attr source  throughputSignalMac
attr title  "throughputMetricMac, count"
scalar RSUScenario.node[24].nic.mac1609_4 	throughputMetricMac:sum 	829841.72736969
attr source  throughputSignalMac
attr title  "throughputMetricMac, sum"
scalar RSUScenario.node[24].nic.mac1609_4 	throughputMetricMac:mean 	51.594238210003
attr source  throughputSignalMac
attr title  "throughputMetricMac, mean"
scalar RSUScenario.node[24].veinsmobility 	startTime 	91.5
scalar RSUScenario.node[24].veinsmobility 	totalTime 	108.4
scalar RSUScenario.node[24].veinsmobility 	stopTime 	200
scalar RSUScenario.node[24].veinsmobility 	minSpeed 	1.2804826916339e-08
scalar RSUScenario.node[24].veinsmobility 	maxSpeed 	22.21715550924
scalar RSUScenario.node[24].veinsmobility 	totalDistance 	955.9901391291
scalar RSUScenario.node[24].veinsmobility 	totalCO2Emission 	286.30962277288
scalar RSUScenario.node[25].nic.phy80211p 	busyTime 	0.095187157695961
scalar RSUScenario.node[25].nic.mac1609_4 	throughputMetricMac 	78.579557570906
scalar RSUScenario.node[25].nic.mac1609_4 	throughputMbps 	0.27185902266286
scalar RSUScenario.node[25].nic.mac1609_4 	throughputControlMbps 	0
scalar RSUScenario.node[25].nic.mac1609_4 	ReceivedUnicastPackets 	0
scalar RSUScenario.node[25].nic.mac1609_4 	ReceivedBroadcasts 	15712
scalar RSUScenario.node[25].nic.mac1609_4 	SentPackets 	1060
scalar RSUScenario.node[25].nic.mac1609_4 	SNIRLostPackets 	410
scalar RSUScenario.node[25].nic.mac1609_4 	RXTXLostPackets 	58
scalar RSUScenario.node[25].nic.mac1609_4 	TotalLostPackets 	468
scalar RSUScenario.node[25].nic.mac1609_4 	DroppedPacketsInMac 	0
scalar RSUScenario.node[25].nic.mac1609_4 	TooLittleTime 	0
scalar RSUScenario.node[25].nic.mac1609_4 	TimesIntoBackoff 	2042
scalar RSUScenario.node[25].nic.mac1609_4 	SlotsBackoff 	2913
scalar RSUScenario.node[25].nic.mac1609_4 	NumInternalContention 	0
scalar RSUScenario.node[25].nic.mac1609_4 	totalBusyTime 	10.621082037679
scalar RSUScenario.node[25].nic.mac1609_4 	throughputMetricMac:last 	78.579557570906
attr source  throughputSignalMac
attr title  "throughputMetricMac, last"
scalar RSUScenario.node[25].nic.mac1609_4 	throughputMetricMac:count 	15712
attr source  throughputSignalMac
attr title  "throughputMetricMac, count"
scalar RSUScenario.node[25].nic.mac1609_4 	throughputMetricMac:sum 	789783.3733362
attr source  throughputSignalMac
attr title  "throughputMetricMac, sum"
scalar RSUScenario.node[25].nic.mac1609_4 	throughputMetricMac:mean 	50.266253394615
attr source  throughputSignalMac
attr title  "throughputMetricMac, mean"
scalar RSUScenario.node[25].veinsmobility 	startTime 	94.1
scalar RSUScenario.node[25].veinsmobility 	totalTime 	105.8
scalar RSUScenario.node[25].veinsmobility 	stopTime 	200
scalar RSUScenario.node[25].veinsmobility 	minSpeed 	1.1044479688379e-07
scalar RSUScenario.node[25].veinsmobility 	maxSpeed 	22.217111391746
scalar RSUScenario.node[25].veinsmobility 	totalDistance 	937.19494794276
scalar RSUScenario.node[25].veinsmobility 	totalCO2Emission 	273.95708061037
scalar RSUScenario.node[26].nic.phy80211p 	busyTime 	0.095196902226546
scalar RSUScenario.node[26].nic.mac1609_4 	throughputMetricMac 	75.818870442557
scalar RSUScenario.node[26].nic.mac1609_4 	throughputMbps 	0.262342093922
scalar RSUScenario.node[26].nic.mac1609_4 	throughputControlMbps 	0
scalar RSUScenario.node[26].nic.mac1609_4 	ReceivedUnicastPackets 	0
scalar RSUScenario.node[26].nic.mac1609_4 	ReceivedBroadcasts 	15160
scalar RSUScenario.node[26].nic.mac1609_4 	SentPackets 	1034
scalar RSUScenario.node[26].nic.mac1609_4 	SNIRLostPackets 	575
scalar RSUScenario.node[26].nic.mac1609_4 	RXTXLostPackets 	1
scalar RSUScenario.node[26].nic.mac1609_4 	TotalLostPackets 	576
scalar RSUScenario.node[26].nic.mac1609_4 	DroppedPacketsInMac 	0
scalar RSUScenario.node[26].nic.mac1609_4 	TooLittleTime 	0
scalar RSUScenario.node[26].nic.mac1609_4 	TimesIntoBackoff 	1112
scalar RSUScenario.node[26].nic.mac1609_4 	SlotsBackoff 	1716
scalar RSUScenario.node[26].nic.mac1609_4 	NumInternalContention 	0
scalar RSUScenario.node[26].nic.mac1609_4 	totalBusyTime 	10.298023994978
scalar RSUScenario.node[26].nic.mac1609_4 	throughputMetricMac:last 	75.818870442557
attr source  throughputSignalMac
attr title  "throughputMetricMac, last"
scalar RSUScenario.node[26].nic.mac1609_4 	throughputMetricMac:count 	15160
attr source  throughputSignalMac
attr title  "throughputMetricMac, count"
scalar RSUScenario.node[26].nic.mac1609_4 	throughputMetricMac:sum 	731090.06262245
attr source  throughputSignalMac
attr title  "throughputMetricMac, sum"
scalar RSUScenario.node[26].nic.mac1609_4 	throughputMetricMac:mean 	48.224938167708
attr source  throughputSignalMac
attr title  "throughputMetricMac, mean"
scalar RSUScenario.node[26].veinsmobility 	startTime 	96.7
scalar RSUScenario.node[26].veinsmobility 	totalTime 	103.2
scalar RSUScenario.node[26].veinsmobility 	stopTime 	200
scalar RSUScenario.node[26].veinsmobility 	minSpeed 	7.5987295400894e-07
scalar RSUScenario.node[26].veinsmobility 	maxSpeed 	22.211180316813
scalar RSUScenario.node[26].veinsmobility 	totalDistance 	917.38441194701
scalar RSUScenario.node[26].veinsmobility 	totalCO2Emission 	265.39632630228
scalar RSUScenario.node[27].nic.phy80211p 	busyTime 	0.0948383300199
scalar RSUScenario.node[27].nic.mac1609_4 	throughputMetricMac 	72.508046384755
scalar RSUScenario.node[27].nic.mac1609_4 	throughputMbps 	0.2508758800033
scalar RSUScenario.node[27].nic.mac1609_4 	throughputControlMbps 	0
scalar RSUScenario.node[27].nic.mac1609_4 	ReceivedUnicastPackets 	0
scalar RSUScenario.node[27].nic.mac1609_4 	ReceivedBroadcasts 	14498
scalar RSUScenario.node[27].nic.mac1609_4 	SentPackets 	1007
scalar RSUScenario.node[27].nic.mac1609_4 	SNIRLostPackets 	766
scalar RSUScenario.node[27].nic.mac1609_4 	RXTXLostPackets 	0
scalar RSUScenario.node[27].nic.mac1609_4 	TotalLostPackets 	766
scalar RSUScenario.node[27].nic.mac1609_4 	DroppedPacketsInMac 	0
scalar RSUScenario.node[27].nic.mac1609_4 	TooLittleTime 	0
scalar RSUScenario.node[27].nic.mac1609_4 	TimesIntoBackoff 	1008
scalar RSUScenario.node[27].nic.mac1609_4 	SlotsBackoff 	1509
scalar RSUScenario.node[27].nic.mac1609_4 	NumInternalContention 	0
scalar RSUScenario.node[27].nic.mac1609_4 	totalBusyTime 	9.939396296618
scalar RSUScenario.node[27].nic.mac1609_4 	throughputMetricMac:last 	72.508046384755
attr source  throughputSignalMac
attr title  "throughputMetricMac, last"
scalar RSUScenario.node[27].nic.mac1609_4 	throughputMetricMac:count 	14498
attr source  throughputSignalMac
attr title  "throughputMetricMac, count"
scalar RSUScenario.node[27].nic.mac1609_4 	throughputMetricMac:sum 	664014.42560876
attr source  throughputSignalMac
attr title  "throughputMetricMac, sum"
scalar RSUScenario.node[27].nic.mac1609_4 	throughputMetricMac:mean 	45.800415616551
attr source  throughputSignalMac
attr title  "throughputMetricMac, mean"
scalar RSUScenario.node[27].veinsmobility 	startTime 	99.4
scalar RSUScenario.node[27].veinsmobility 	totalTime 	100.5
scalar RSUScenario.node[27].veinsmobility 	stopTime 	200
scalar RSUScenario.node[27].veinsmobility 	minSpeed 	3.848826228958e-06
scalar RSUScenario.node[27].veinsmobility 	maxSpeed 	22.217552027937
scalar RSUScenario.node[27].veinsmobility 	totalDistance 	889.72449387709
scalar RSUScenario.node[27].veinsmobility 	totalCO2Emission 	263.49873773755
scalar RSUScenario.node[28].nic.phy80211p 	busyTime 	0.094623901940776
scalar RSUScenario.node[28].nic.mac1609_4 	throughputMetricMac 	70.207473756949
scalar RSUScenario.node[28].nic.mac1609_4 	throughputMbps 	0.24292510100143
scalar RSUScenario.node[28].nic.mac1609_4 	throughputControlMbps 	0
scalar RSUScenario.node[28].nic.mac1609_4 	ReceivedUnicastPackets 	0
scalar RSUScenario.node[28].nic.mac1609_4 	ReceivedBroadcasts 	14038
scalar RSUScenario.node[28].nic.mac1609_4 	SentPackets 	980
scalar RSUScenario.node[28].nic.mac1609_4 	SNIRLostPackets 	778
scalar RSUScenario.node[28].nic.mac1609_4 	RXTXLostPackets 	56
scalar RSUScenario.node[28].nic.mac1609_4 	TotalLostPackets 	834
scalar RSUScenario.node[28].nic.mac1609_4 	DroppedPacketsInMac 	0
scalar RSUScenario.node[28].nic.mac1609_4 	TooLittleTime 	0
scalar RSUScenario.node[28].nic.mac1609_4 	TimesIntoBackoff 	1211
scalar RSUScenario.node[28].nic.mac1609_4 	SlotsBackoff 	1792
scalar RSUScenario.node[28].nic.mac1609_4 	NumInternalContention 	0
scalar RSUScenario.node[28].nic.mac1609_4 	totalBusyTime 	9.640233182306
scalar RSUScenario.node[28].nic.mac1609_4 	throughputMetricMac:last 	70.207473756949
attr source  throughputSignalMac
attr title  "throughputMetricMac, last"
scalar RSUScenario.node[28].nic.mac1609_4 	throughputMetricMac:count 	14038
attr source  throughputSignalMac
attr title  "throughputMetricMac, count"
scalar RSUScenario.node[28].nic.mac1609_4 	throughputMetricMac:sum 	617944.07842784
attr source  throughputSignalMac
attr title  "throughputMetricMac, sum"
scalar RSUScenario.node[28].nic.mac1609_4 	throughputMetricMac:mean 	44.019381566309
attr source  throughputSignalMac
attr title  "throughputMetricMac, mean"
scalar RSUScenario.node[28].veinsmobility 	startTime 	102.1
scalar RSUScenario.node[28].veinsmobility 	totalTime 	97.8
scalar RSUScenario.node[28].veinsmobility 	stopTime 	200
scalar RSUScenario.node[28].veinsmobility 	minSpeed 	1.5956486747517e-05
scalar RSUScenario.node[28].veinsmobility 	maxSpeed 	22.214814219016
scalar RSUScenario.node[28].veinsmobility 	totalDistance 	849.58550611208
scalar RSUScenario.node[28].veinsmobility 	totalCO2Emission 	257.96316011762
scalar RSUScenario.node[29].nic.phy80211p 	busyTime 	0.094483728813579
scalar RSUScenario.node[29].nic.mac1609_4 	throughputMetricMac 	66.866642213088
scalar RSUScenario.node[29].nic.mac1609_4 	throughputMbps 	0.23118713938749
scalar RSUScenario.node[29].nic.mac1609_4 	throughputControlMbps 	0
scalar RSUScenario.node[29].nic.mac1609_4 	ReceivedUnicastPackets 	0
scalar RSUScenario.node[29].nic.mac1609_4 	ReceivedBroadcasts 	13370
scalar RSUScenario.node[29].nic.mac1609_4 	SentPackets 	945
scalar RSUScenario.node[29].nic.mac1609_4 	SNIRLostPackets 	916
scalar RSUScenario.node[29].nic.mac1609_4 	RXTXLostPackets 	0
scalar RSUScenario.node[29].nic.mac1609_4 	TotalLostPackets 	916
scalar RSUScenario.node[29].nic.mac1609_4 	DroppedPacketsInMac 	0
scalar RSUScenario.node[29].nic.mac1609_4 	TooLittleTime 	0
scalar RSUScenario.node[29].nic.mac1609_4 	TimesIntoBackoff 	946
scalar RSUScenario.node[29].nic.mac1609_4 	SlotsBackoff 	1429
scalar RSUScenario.node[29].nic.mac1609_4 	NumInternalContention 	0
scalar RSUScenario.node[29].nic.mac1609_4 	totalBusyTime 	9.21487716579
scalar RSUScenario.node[29].nic.mac1609_4 	throughputMetricMac:last 	66.866642213088
attr source  throughputSignalMac
attr title  "throughputMetricMac, last"
scalar RSUScenario.node[29].nic.mac1609_4 	throughputMetricMac:count 	13370
attr source  throughputSignalMac
attr title  "throughputMetricMac, count"
scalar RSUScenario.node[29].nic.mac1609_4 	throughputMetricMac:sum 	553357.53968246
attr source  throughputSignalMac
attr title  "throughputMetricMac, sum"
scalar RSUScenario.node[29].nic.mac1609_4 	throughputMetricMac:mean 	41.387998480364
attr source  throughputSignalMac
attr title  "throughputMetricMac, mean"
scalar RSUScenario.node[29].veinsmobility 	startTime 	105.6
scalar RSUScenario.node[29].veinsmobility 	totalTime 	94.3
scalar RSUScenario.node[29].veinsmobility 	stopTime 	200
scalar RSUScenario.node[29].veinsmobility 	minSpeed 	4.9981349551833e-05
scalar RSUScenario.node[29].veinsmobility 	maxSpeed 	22.219165075347
scalar RSUScenario.node[29].veinsmobility 	totalDistance 	793.86150240069
scalar RSUScenario.node[29].veinsmobility 	totalCO2Emission 	250.79574177298
scalar RSUScenario.node[30].nic.phy80211p 	busyTime 	0.086425842696645
scalar RSUScenario.node[30].nic.mac1609_4 	throughputMetricMac 	47.781725637392
scalar RSUScenario.node[30].nic.mac1609_4 	throughputMbps 	0.16520566147596
scalar RSUScenario.node[30].nic.mac1609_4 	throughputControlMbps 	0
scalar RSUScenario.node[30].nic.mac1609_4 	ReceivedUnicastPackets 	0
scalar RSUScenario.node[30].nic.mac1609_4 	ReceivedBroadcasts 	9554
scalar RSUScenario.node[30].nic.mac1609_4 	SentPackets 	713
scalar RSUScenario.node[30].nic.mac1609_4 	SNIRLostPackets 	301
scalar RSUScenario.node[30].nic.mac1609_4 	RXTXLostPackets 	0
scalar RSUScenario.node[30].nic.mac1609_4 	TotalLostPackets 	301
scalar RSUScenario.node[30].nic.mac1609_4 	DroppedPacketsInMac 	0
scalar RSUScenario.node[30].nic.mac1609_4 	TooLittleTime 	0
scalar RSUScenario.node[30].nic.mac1609_4 	TimesIntoBackoff 	713
scalar RSUScenario.node[30].nic.mac1609_4 	SlotsBackoff 	1035
scalar RSUScenario.node[30].nic.mac1609_4 	NumInternalContention 	0
scalar RSUScenario.node[30].nic.mac1609_4 	totalBusyTime 	6.498681000409
scalar RSUScenario.node[30].nic.mac1609_4 	throughputMetricMac:last 	47.781725637392
attr source  throughputSignalMac
attr title  "throughputMetricMac, last"
scalar RSUScenario.node[30].nic.mac1609_4 	throughputMetricMac:count 	9554
attr source  throughputSignalMac
attr title  "throughputMetricMac, count"
scalar RSUScenario.node[30].nic.mac1609_4 	throughputMetricMac:sum 	263351.54326203
attr source  throughputSignalMac
attr title  "throughputMetricMac, sum"
scalar RSUScenario.node[30].nic.mac1609_4 	throughputMetricMac:mean 	27.564532474569
attr source  throughputSignalMac
attr title  "throughputMetricMac, mean"
scalar RSUScenario.node[30].veinsmobility 	startTime 	128.8
scalar RSUScenario.node[30].veinsmobility 	totalTime 	71.1
scalar RSUScenario.node[30].veinsmobility 	stopTime 	200
scalar RSUScenario.node[30].veinsmobility 	minSpeed 	0
scalar RSUScenario.node[30].veinsmobility 	maxSpeed 	16.663771004416
scalar RSUScenario.node[30].veinsmobility 	totalDistance 	343.73215850348
scalar RSUScenario.node[30].veinsmobility 	totalCO2Emission 	173.62204238487
scalar RSUScenario.node[31].nic.phy80211p 	busyTime 	0.085927058823544
scalar RSUScenario.node[31].nic.mac1609_4 	throughputMetricMac 	45.716218803002
scalar RSUScenario.node[31].nic.mac1609_4 	throughputMbps 	0.15806726985638
scalar RSUScenario.node[31].nic.mac1609_4 	throughputControlMbps 	0
scalar RSUScenario.node[31].nic.mac1609_4 	ReceivedUnicastPackets 	0
scalar RSUScenario.node[31].nic.mac1609_4 	ReceivedBroadcasts 	9141
scalar RSUScenario.node[31].nic.mac1609_4 	SentPackets 	681
scalar RSUScenario.node[31].nic.mac1609_4 	SNIRLostPackets 	219
scalar RSUScenario.node[31].nic.mac1609_4 	RXTXLostPackets 	2
scalar RSUScenario.node[31].nic.mac1609_4 	TotalLostPackets 	221
scalar RSUScenario.node[31].nic.mac1609_4 	DroppedPacketsInMac 	0
scalar RSUScenario.node[31].nic.mac1609_4 	TooLittleTime 	0
scalar RSUScenario.node[31].nic.mac1609_4 	TimesIntoBackoff 	683
scalar RSUScenario.node[31].nic.mac1609_4 	SlotsBackoff 	1013
scalar RSUScenario.node[31].nic.mac1609_4 	NumInternalContention 	0
scalar RSUScenario.node[31].nic.mac1609_4 	totalBusyTime 	6.197881000408
scalar RSUScenario.node[31].nic.mac1609_4 	throughputMetricMac:last 	45.716218803002
attr source  throughputSignalMac
attr title  "throughputMetricMac, last"
scalar RSUScenario.node[31].nic.mac1609_4 	throughputMetricMac:count 	9141
attr source  throughputSignalMac
attr title  "throughputMetricMac, count"
scalar RSUScenario.node[31].nic.mac1609_4 	throughputMetricMac:sum 	240006.92550284
attr source  throughputSignalMac
attr title  "throughputMetricMac, sum"
scalar RSUScenario.node[31].nic.mac1609_4 	throughputMetricMac:mean 	26.256090745306
attr source  throughputSignalMac
attr title  "throughputMetricMac, mean"
scalar RSUScenario.node[31].veinsmobility 	startTime 	132
scalar RSUScenario.node[31].veinsmobility 	totalTime 	67.9
scalar RSUScenario.node[31].veinsmobility 	stopTime 	200
scalar RSUScenario.node[31].veinsmobility 	minSpeed 	5.1295413412708e-13
scalar RSUScenario.node[31].veinsmobility 	maxSpeed 	16.273093481607
scalar RSUScenario.node[31].veinsmobility 	totalDistance 	288.51355689825
scalar RSUScenario.node[31].veinsmobility 	totalCO2Emission 	161.77149078421
scalar RSUScenario.node[32].nic.phy80211p 	busyTime 	0.085820368098174
scalar RSUScenario.node[32].nic.mac1609_4 	throughputMetricMac 	43.725730364459
scalar RSUScenario.node[32].nic.mac1609_4 	throughputMbps 	0.1512121477039
scalar RSUScenario.node[32].nic.mac1609_4 	throughputControlMbps 	0
scalar RSUScenario.node[32].nic.mac1609_4 	ReceivedUnicastPackets 	0
scalar RSUScenario.node[32].nic.mac1609_4 	ReceivedBroadcasts 	8743
scalar RSUScenario.node[32].nic.mac1609_4 	SentPackets 	653
scalar RSUScenario.node[32].nic.mac1609_4 	SNIRLostPackets 	219
scalar RSUScenario.node[32].nic.mac1609_4 	RXTXLostPackets 	2
scalar RSUScenario.node[32].nic.mac1609_4 	TotalLostPackets 	221
scalar RSUScenario.node[32].nic.mac1609_4 	DroppedPacketsInMac 	0
scalar RSUScenario.node[32].nic.mac1609_4 	TooLittleTime 	0
scalar RSUScenario.node[32].nic.mac1609_4 	TimesIntoBackoff 	654
scalar RSUScenario.node[32].nic.mac1609_4 	SlotsBackoff 	973
scalar RSUScenario.node[32].nic.mac1609_4 	NumInternalContention 	0
scalar RSUScenario.node[32].nic.mac1609_4 	totalBusyTime 	5.930157000363
scalar RSUScenario.node[32].nic.mac1609_4 	throughputMetricMac:last 	43.725730364459
attr source  throughputSignalMac
attr title  "throughputMetricMac, last"
scalar RSUScenario.node[32].nic.mac1609_4 	throughputMetricMac:count 	8743
attr source  throughputSignalMac
attr title  "throughputMetricMac, count"
scalar RSUScenario.node[32].nic.mac1609_4 	throughputMetricMac:sum 	218458.98177981
attr source  throughputSignalMac
attr title  "throughputMetricMac, sum"
scalar RSUScenario.node[32].nic.mac1609_4 	throughputMetricMac:mean 	24.986730158962
attr source  throughputSignalMac
attr title  "throughputMetricMac, mean"
scalar RSUScenario.node[32].veinsmobility 	startTime 	134.8
scalar RSUScenario.node[32].veinsmobility 	totalTime 	65.1
scalar RSUScenario.node[32].veinsmobility 	stopTime 	200
scalar RSUScenario.node[32].veinsmobility 	minSpeed 	1.488821559745e-11
scalar RSUScenario.node[32].veinsmobility 	maxSpeed 	13.885159029737
scalar RSUScenario.node[32].veinsmobility 	totalDistance 	247.56445362989
scalar RSUScenario.node[32].veinsmobility 	totalCO2Emission 	134.18094000641
scalar RSUScenario.node[33].nic.phy80211p 	busyTime 	0.086156032000014
scalar RSUScenario.node[33].nic.mac1609_4 	throughputMetricMac 	41.990304502485
scalar RSUScenario.node[33].nic.mac1609_4 	throughputMbps 	0.14519051003386
scalar RSUScenario.node[33].nic.mac1609_4 	throughputControlMbps 	0
scalar RSUScenario.node[33].nic.mac1609_4 	ReceivedUnicastPackets 	0
scalar RSUScenario.node[33].nic.mac1609_4 	ReceivedBroadcasts 	8396
scalar RSUScenario.node[33].nic.mac1609_4 	SentPackets 	626
scalar RSUScenario.node[33].nic.mac1609_4 	SNIRLostPackets 	227
scalar RSUScenario.node[33].nic.mac1609_4 	RXTXLostPackets 	0
scalar RSUScenario.node[33].nic.mac1609_4 	TotalLostPackets 	227
scalar RSUScenario.node[33].nic.mac1609_4 	DroppedPacketsInMac 	0
scalar RSUScenario.node[33].nic.mac1609_4 	TooLittleTime 	0
scalar RSUScenario.node[33].nic.mac1609_4 	TimesIntoBackoff 	627
scalar RSUScenario.node[33].nic.mac1609_4 	SlotsBackoff 	926
scalar RSUScenario.node[33].nic.mac1609_4 	NumInternalContention 	0
scalar RSUScenario.node[33].nic.mac1609_4 	totalBusyTime 	5.696130049771
scalar RSUScenario.node[33].nic.mac1609_4 	throughputMetricMac:last 	41.990304502485
attr source  throughputSignalMac
attr title  "throughputMetricMac, last"
scalar RSUScenario.node[33].nic.mac1609_4 	throughputMetricMac:count 	8396
attr source  throughputSignalMac
attr title  "throughputMetricMac, count"
scalar RSUScenario.node[33].nic.mac1609_4 	throughputMetricMac:sum 	200320.34385861
attr source  throughputSignalMac
attr title  "throughputMetricMac, sum"
scalar RSUScenario.node[33].nic.mac1609_4 	throughputMetricMac:mean 	23.859021421941
attr source  throughputSignalMac
attr title  "throughputMetricMac, mean"
scalar RSUScenario.node[33].veinsmobility 	startTime 	137.5
scalar RSUScenario.node[33].veinsmobility 	totalTime 	62.4
scalar RSUScenario.node[33].veinsmobility 	stopTime 	200
scalar RSUScenario.node[33].veinsmobility 	minSpeed 	2.352355276863e-10
scalar RSUScenario.node[33].veinsmobility 	maxSpeed 	13.81138533415
scalar RSUScenario.node[33].veinsmobility 	totalDistance 	224.42630167405
scalar RSUScenario.node[33].veinsmobility 	totalCO2Emission 	115.69774112144
scalar RSUScenario.node[7].nic.phy80211p 	busyTime 	0.10139431658561
scalar RSUScenario.node[7].nic.mac1609_4 	throughputMetricMac 	146.15795256863
scalar RSUScenario.node[7].nic.mac1609_4 	throughputMbps 	0.50554312787134
scalar RSUScenario.node[7].nic.mac1609_4 	throughputControlMbps 	0
scalar RSUScenario.node[7].nic.mac1609_4 	ReceivedUnicastPackets 	0
scalar RSUScenario.node[7].nic.mac1609_4 	ReceivedBroadcasts 	29223
scalar RSUScenario.node[7].nic.mac1609_4 	SentPackets 	1852
scalar RSUScenario.node[7].nic.mac1609_4 	SNIRLostPackets 	829
scalar RSUScenario.node[7].nic.mac1609_4 	RXTXLostPackets 	1
scalar RSUScenario.node[7].nic.mac1609_4 	TotalLostPackets 	830
scalar RSUScenario.node[7].nic.mac1609_4 	DroppedPacketsInMac 	0
scalar RSUScenario.node[7].nic.mac1609_4 	TooLittleTime 	0
scalar RSUScenario.node[7].nic.mac1609_4 	TimesIntoBackoff 	1853
scalar RSUScenario.node[7].nic.mac1609_4 	SlotsBackoff 	2868
scalar RSUScenario.node[7].nic.mac1609_4 	NumInternalContention 	0
scalar RSUScenario.node[7].nic.mac1609_4 	totalBusyTime 	19.669745192132
scalar RSUScenario.node[7].nic.mac1609_4 	throughputMetricMac:last 	146.15795256863
attr source  throughputSignalMac
attr title  "throughputMetricMac, last"
scalar RSUScenario.node[7].nic.mac1609_4 	throughputMetricMac:count 	29223
attr source  throughputSignalMac
attr title  "throughputMetricMac, count"
scalar RSUScenario.node[7].nic.mac1609_4 	throughputMetricMac:sum 	3351683.8972586
attr source  throughputSignalMac
attr title  "throughputMetricMac, sum"
scalar RSUScenario.node[7].nic.mac1609_4 	throughputMetricMac:mean 	114.69335445569
attr source  throughputSignalMac
attr title  "throughputMetricMac, mean"
scalar RSUScenario.node[7].veinsmobility 	startTime 	14.9
scalar RSUScenario.node[7].veinsmobility 	totalTime 	185
scalar RSUScenario.node[7].veinsmobility 	stopTime 	200
scalar RSUScenario.node[7].veinsmobility 	minSpeed 	9.3395972443443e-06
scalar RSUScenario.node[7].veinsmobility 	maxSpeed 	27.779999478573
scalar RSUScenario.node[7].veinsmobility 	totalDistance 	2533.9896857464
scalar RSUScenario.node[7].veinsmobility 	totalCO2Emission 	612.25028626435
scalar RSUScenario.node[34].nic.phy80211p 	busyTime 	0.086964816053524
scalar RSUScenario.node[34].nic.mac1609_4 	throughputMetricMac 	40.52994613162
scalar RSUScenario.node[34].nic.mac1609_4 	throughputMbps 	0.14016751739525
scalar RSUScenario.node[34].nic.mac1609_4 	throughputControlMbps 	0
scalar RSUScenario.node[34].nic.mac1609_4 	ReceivedUnicastPackets 	0
scalar RSUScenario.node[34].nic.mac1609_4 	ReceivedBroadcasts 	8104
scalar RSUScenario.node[34].nic.mac1609_4 	SentPackets 	599
scalar RSUScenario.node[34].nic.mac1609_4 	SNIRLostPackets 	225
scalar RSUScenario.node[34].nic.mac1609_4 	RXTXLostPackets 	2
scalar RSUScenario.node[34].nic.mac1609_4 	TotalLostPackets 	227
scalar RSUScenario.node[34].nic.mac1609_4 	DroppedPacketsInMac 	0
scalar RSUScenario.node[34].nic.mac1609_4 	TooLittleTime 	0
scalar RSUScenario.node[34].nic.mac1609_4 	TimesIntoBackoff 	984
scalar RSUScenario.node[34].nic.mac1609_4 	SlotsBackoff 	1560
scalar RSUScenario.node[34].nic.mac1609_4 	NumInternalContention 	0
scalar RSUScenario.node[34].nic.mac1609_4 	totalBusyTime 	5.493927100189
scalar RSUScenario.node[34].nic.mac1609_4 	throughputMetricMac:last 	40.52994613162
attr source  throughputSignalMac
attr title  "throughputMetricMac, last"
scalar RSUScenario.node[34].nic.mac1609_4 	throughputMetricMac:count 	8104
attr source  throughputSignalMac
attr title  "throughputMetricMac, count"
scalar RSUScenario.node[34].nic.mac1609_4 	throughputMetricMac:sum 	185368.51870178
attr source  throughputSignalMac
attr title  "throughputMetricMac, sum"
scalar RSUScenario.node[34].nic.mac1609_4 	throughputMetricMac:mean 	22.873706651256
attr source  throughputSignalMac
attr title  "throughputMetricMac, mean"
scalar RSUScenario.node[34].veinsmobility 	startTime 	140.2
scalar RSUScenario.node[34].veinsmobility 	totalTime 	59.7
scalar RSUScenario.node[34].veinsmobility 	stopTime 	200
scalar RSUScenario.node[34].veinsmobility 	minSpeed 	2.3258870198125e-09
scalar RSUScenario.node[34].veinsmobility 	maxSpeed 	13.543995083708
scalar RSUScenario.node[34].veinsmobility 	totalDistance 	209.39576782647
scalar RSUScenario.node[34].veinsmobility 	totalCO2Emission 	106.67480789273
scalar RSUScenario.node[35].nic.phy80211p 	busyTime 	0.088013189964171
scalar RSUScenario.node[35].nic.mac1609_4 	throughputMetricMac 	37.909303023393
scalar RSUScenario.node[35].nic.mac1609_4 	throughputMbps 	0.13111057481323
scalar RSUScenario.node[35].nic.mac1609_4 	throughputControlMbps 	0
scalar RSUScenario.node[35].nic.mac1609_4 	ReceivedUnicastPackets 	0
scalar RSUScenario.node[35].nic.mac1609_4 	ReceivedBroadcasts 	7580
scalar RSUScenario.node[35].nic.mac1609_4 	SentPackets 	559
scalar RSUScenario.node[35].nic.mac1609_4 	SNIRLostPackets 	284
scalar RSUScenario.node[35].nic.mac1609_4 	RXTXLostPackets 	0
scalar RSUScenario.node[35].nic.mac1609_4 	TotalLostPackets 	284
scalar RSUScenario.node[35].nic.mac1609_4 	DroppedPacketsInMac 	0
scalar RSUScenario.node[35].nic.mac1609_4 	TooLittleTime 	0
scalar RSUScenario.node[35].nic.mac1609_4 	TimesIntoBackoff 	559
scalar RSUScenario.node[35].nic.mac1609_4 	SlotsBackoff 	844
scalar RSUScenario.node[35].nic.mac1609_4 	NumInternalContention 	0
scalar RSUScenario.node[35].nic.mac1609_4 	totalBusyTime 	5.152717088927
scalar RSUScenario.node[35].nic.mac1609_4 	throughputMetricMac:last 	37.909303023393
attr source  throughputSignalMac
attr title  "throughputMetricMac, last"
scalar RSUScenario.node[35].nic.mac1609_4 	throughputMetricMac:count 	7580
attr source  throughputSignalMac
attr title  "throughputMetricMac, count"
scalar RSUScenario.node[35].nic.mac1609_4 	throughputMetricMac:sum 	160604.42236319
attr source  throughputSignalMac
attr title  "throughputMetricMac, sum"
scalar RSUScenario.node[35].nic.mac1609_4 	throughputMetricMac:mean 	21.187918517571
attr source  throughputSignalMac
attr title  "throughputMetricMac, mean"
scalar RSUScenario.node[35].veinsmobility 	startTime 	144.2
scalar RSUScenario.node[35].veinsmobility 	totalTime 	55.7
scalar RSUScenario.node[35].veinsmobility 	stopTime 	200
scalar RSUScenario.node[35].veinsmobility 	minSpeed 	1.7520534513235e-08
scalar RSUScenario.node[35].veinsmobility 	maxSpeed 	13.257615098739
scalar RSUScenario.node[35].veinsmobility 	totalDistance 	189.37029149282
scalar RSUScenario.node[35].veinsmobility 	totalCO2Emission 	100.61807446852
scalar RSUScenario.node[36].nic.phy80211p 	busyTime 	0.07871073359073
scalar RSUScenario.node[36].nic.mac1609_4 	throughputMetricMac 	15.783873396183
scalar RSUScenario.node[36].nic.mac1609_4 	throughputMbps 	0.054549066457208
scalar RSUScenario.node[36].nic.mac1609_4 	throughputControlMbps 	0
scalar RSUScenario.node[36].nic.mac1609_4 	ReceivedUnicastPackets 	0
scalar RSUScenario.node[36].nic.mac1609_4 	ReceivedBroadcasts 	3156
scalar RSUScenario.node[36].nic.mac1609_4 	SentPackets 	259
scalar RSUScenario.node[36].nic.mac1609_4 	SNIRLostPackets 	111
scalar RSUScenario.node[36].nic.mac1609_4 	RXTXLostPackets 	0
scalar RSUScenario.node[36].nic.mac1609_4 	TotalLostPackets 	111
scalar RSUScenario.node[36].nic.mac1609_4 	DroppedPacketsInMac 	0
scalar RSUScenario.node[36].nic.mac1609_4 	TooLittleTime 	0
scalar RSUScenario.node[36].nic.mac1609_4 	TimesIntoBackoff 	259
scalar RSUScenario.node[36].nic.mac1609_4 	SlotsBackoff 	373
scalar RSUScenario.node[36].nic.mac1609_4 	NumInternalContention 	0
scalar RSUScenario.node[36].nic.mac1609_4 	totalBusyTime 	2.154226369772
scalar RSUScenario.node[36].nic.mac1609_4 	throughputMetricMac:last 	15.783873396183
attr source  throughputSignalMac
attr title  "throughputMetricMac, last"
scalar RSUScenario.node[36].nic.mac1609_4 	throughputMetricMac:count 	3156
attr source  throughputSignalMac
attr title  "throughputMetricMac, count"
scalar RSUScenario.node[36].nic.mac1609_4 	throughputMetricMac:sum 	25989.846775448
attr source  throughputSignalMac
attr title  "throughputMetricMac, sum"
scalar RSUScenario.node[36].nic.mac1609_4 	throughputMetricMac:mean 	8.2350591810673
attr source  throughputSignalMac
attr title  "throughputMetricMac, mean"
scalar RSUScenario.node[36].veinsmobility 	startTime 	174.1
scalar RSUScenario.node[36].veinsmobility 	totalTime 	25.8
scalar RSUScenario.node[36].veinsmobility 	stopTime 	200
scalar RSUScenario.node[36].veinsmobility 	minSpeed 	0.25625992992311
scalar RSUScenario.node[36].veinsmobility 	maxSpeed 	13.164590423962
scalar RSUScenario.node[36].veinsmobility 	totalDistance 	161.18325475396
scalar RSUScenario.node[36].veinsmobility 	totalCO2Emission 	66.894721884124
scalar RSUScenario.node[37].nic.phy80211p 	busyTime 	0.080931724137924
scalar RSUScenario.node[37].nic.mac1609_4 	throughputMetricMac 	14.453546933287
scalar RSUScenario.node[37].nic.mac1609_4 	throughputMbps 	0.049951458201439
scalar RSUScenario.node[37].nic.mac1609_4 	throughputControlMbps 	0
scalar RSUScenario.node[37].nic.mac1609_4 	ReceivedUnicastPackets 	0
scalar RSUScenario.node[37].nic.mac1609_4 	ReceivedBroadcasts 	2890
scalar RSUScenario.node[37].nic.mac1609_4 	SentPackets 	232
scalar RSUScenario.node[37].nic.mac1609_4 	SNIRLostPackets 	119
scalar RSUScenario.node[37].nic.mac1609_4 	RXTXLostPackets 	0
scalar RSUScenario.node[37].nic.mac1609_4 	TotalLostPackets 	119
scalar RSUScenario.node[37].nic.mac1609_4 	DroppedPacketsInMac 	0
scalar RSUScenario.node[37].nic.mac1609_4 	TooLittleTime 	0
scalar RSUScenario.node[37].nic.mac1609_4 	TimesIntoBackoff 	464
scalar RSUScenario.node[37].nic.mac1609_4 	SlotsBackoff 	698
scalar RSUScenario.node[37].nic.mac1609_4 	NumInternalContention 	0
scalar RSUScenario.node[37].nic.mac1609_4 	totalBusyTime 	1.971368077658
scalar RSUScenario.node[37].nic.mac1609_4 	throughputMetricMac:last 	14.453546933287
attr source  throughputSignalMac
attr title  "throughputMetricMac, last"
scalar RSUScenario.node[37].nic.mac1609_4 	throughputMetricMac:count 	2890
attr source  throughputSignalMac
attr title  "throughputMetricMac, count"
scalar RSUScenario.node[37].nic.mac1609_4 	throughputMetricMac:sum 	21678.970453887
attr source  throughputSignalMac
attr title  "throughputMetricMac, sum"
scalar RSUScenario.node[37].nic.mac1609_4 	throughputMetricMac:mean 	7.5013738594766
attr source  throughputSignalMac
attr title  "throughputMetricMac, mean"
scalar RSUScenario.node[37].veinsmobility 	startTime 	176.8
scalar RSUScenario.node[37].veinsmobility 	totalTime 	23.1
scalar RSUScenario.node[37].veinsmobility 	stopTime 	200
scalar RSUScenario.node[37].veinsmobility 	minSpeed 	0.25220700715506
scalar RSUScenario.node[37].veinsmobility 	maxSpeed 	8.9138483940974
scalar RSUScenario.node[37].veinsmobility 	totalDistance 	131.33955779237
scalar RSUScenario.node[37].veinsmobility 	totalCO2Emission 	51.230726177134
scalar RSUScenario.node[38].nic.phy80211p 	busyTime 	0.083119223300967
scalar RSUScenario.node[38].nic.mac1609_4 	throughputMetricMac 	13.118219242763
scalar RSUScenario.node[38].nic.mac1609_4 	throughputMbps 	0.045336565702988
scalar RSUScenario.node[38].nic.mac1609_4 	throughputControlMbps 	0
scalar RSUScenario.node[38].nic.mac1609_4 	ReceivedUnicastPackets 	0
scalar RSUScenario.node[38].nic.mac1609_4 	ReceivedBroadcasts 	2623
scalar RSUScenario.node[38].nic.mac1609_4 	SentPackets 	206
scalar RSUScenario.node[38].nic.mac1609_4 	SNIRLostPackets 	121
scalar RSUScenario.node[38].nic.mac1609_4 	RXTXLostPackets 	0
scalar RSUScenario.node[38].nic.mac1609_4 	TotalLostPackets 	121
scalar RSUScenario.node[38].nic.mac1609_4 	DroppedPacketsInMac 	0
scalar RSUScenario.node[38].nic.mac1609_4 	TooLittleTime 	0
scalar RSUScenario.node[38].nic.mac1609_4 	TimesIntoBackoff 	206
scalar RSUScenario.node[38].nic.mac1609_4 	SlotsBackoff 	294
scalar RSUScenario.node[38].nic.mac1609_4 	NumInternalContention 	0
scalar RSUScenario.node[38].nic.mac1609_4 	totalBusyTime 	1.783617120615
scalar RSUScenario.node[38].nic.mac1609_4 	throughputMetricMac:last 	13.118219242763
attr source  throughputSignalMac
attr title  "throughputMetricMac, last"
scalar RSUScenario.node[38].nic.mac1609_4 	throughputMetricMac:count 	2623
attr source  throughputSignalMac
attr title  "throughputMetricMac, count"
scalar RSUScenario.node[38].nic.mac1609_4 	throughputMetricMac:sum 	17783.236674869
attr source  throughputSignalMac
attr title  "throughputMetricMac, sum"
scalar RSUScenario.node[38].nic.mac1609_4 	throughputMetricMac:mean 	6.7797318623215
attr source  throughputSignalMac
attr title  "throughputMetricMac, mean"
scalar RSUScenario.node[38].veinsmobility 	startTime 	179.4
scalar RSUScenario.node[38].veinsmobility 	totalTime 	20.5
scalar RSUScenario.node[38].veinsmobility 	stopTime 	200
scalar RSUScenario.node[38].veinsmobility 	minSpeed 	0.24723358103563
scalar RSUScenario.node[38].veinsmobility 	maxSpeed 	9.2302363159563
scalar RSUScenario.node[38].veinsmobility 	totalDistance 	114.64528272803
scalar RSUScenario.node[38].veinsmobility 	totalCO2Emission 	40.166893334068
scalar RSUScenario.node[39].nic.phy80211p 	busyTime 	0.085233519553069
scalar RSUScenario.node[39].nic.mac1609_4 	throughputMetricMac 	11.822901370917
scalar RSUScenario.node[39].nic.mac1609_4 	throughputMbps 	0.040859947137888
scalar RSUScenario.node[39].nic.mac1609_4 	throughputControlMbps 	0
scalar RSUScenario.node[39].nic.mac1609_4 	ReceivedUnicastPackets 	0
scalar RSUScenario.node[39].nic.mac1609_4 	ReceivedBroadcasts 	2364
scalar RSUScenario.node[39].nic.mac1609_4 	SentPackets 	179
scalar RSUScenario.node[39].nic.mac1609_4 	SNIRLostPackets 	81
scalar RSUScenario.node[39].nic.mac1609_4 	RXTXLostPackets 	0
scalar RSUScenario.node[39].nic.mac1609_4 	TotalLostPackets 	81
scalar RSUScenario.node[39].nic.mac1609_4 	DroppedPacketsInMac 	0
scalar RSUScenario.node[39].nic.mac1609_4 	TooLittleTime 	0
scalar RSUScenario.node[39].nic.mac1609_4 	TimesIntoBackoff 	179
scalar RSUScenario.node[39].nic.mac1609_4 	SlotsBackoff 	267
scalar RSUScenario.node[39].nic.mac1609_4 	NumInternalContention 	0
scalar RSUScenario.node[39].nic.mac1609_4 	totalBusyTime 	1.588661544964
scalar RSUScenario.node[39].nic.mac1609_4 	throughputMetricMac:last 	11.822901370917
attr source  throughputSignalMac
attr title  "throughputMetricMac, last"
scalar RSUScenario.node[39].nic.mac1609_4 	throughputMetricMac:count 	2364
attr source  throughputSignalMac
attr title  "throughputMetricMac, count"
scalar RSUScenario.node[39].nic.mac1609_4 	throughputMetricMac:sum 	14388.419244157
attr source  throughputSignalMac
attr title  "throughputMetricMac, sum"
scalar RSUScenario.node[39].nic.mac1609_4 	throughputMetricMac:mean 	6.0864717614876
attr source  throughputSignalMac
attr title  "throughputMetricMac, mean"
scalar RSUScenario.node[39].veinsmobility 	startTime 	182.1
scalar RSUScenario.node[39].veinsmobility 	totalTime 	17.8
scalar RSUScenario.node[39].veinsmobility 	stopTime 	200
scalar RSUScenario.node[39].veinsmobility 	minSpeed 	0.24731566984137
scalar RSUScenario.node[39].veinsmobility 	maxSpeed 	9.4646588476734
scalar RSUScenario.node[39].veinsmobility 	totalDistance 	102.3318270194
scalar RSUScenario.node[39].veinsmobility 	totalCO2Emission 	35.193260088963
scalar RSUScenario.node[40].nic.phy80211p 	busyTime 	0.087154736842096
scalar RSUScenario.node[40].nic.mac1609_4 	throughputMetricMac 	10.342538092193
scalar RSUScenario.node[40].nic.mac1609_4 	throughputMbps 	0.035743811646617
scalar RSUScenario.node[40].nic.mac1609_4 	throughputControlMbps 	0
scalar RSUScenario.node[40].nic.mac1609_4 	ReceivedUnicastPackets 	0
scalar RSUScenario.node[40].nic.mac1609_4 	ReceivedBroadcasts 	2068
scalar RSUScenario.node[40].nic.mac1609_4 	SentPackets 	152
scalar RSUScenario.node[40].nic.mac1609_4 	SNIRLostPackets 	55
scalar RSUScenario.node[40].nic.mac1609_4 	RXTXLostPackets 	0
scalar RSUScenario.node[40].nic.mac1609_4 	TotalLostPackets 	55
scalar RSUScenario.node[40].nic.mac1609_4 	DroppedPacketsInMac 	0
scalar RSUScenario.node[40].nic.mac1609_4 	TooLittleTime 	0
scalar RSUScenario.node[40].nic.mac1609_4 	TimesIntoBackoff 	152
scalar RSUScenario.node[40].nic.mac1609_4 	SlotsBackoff 	222
scalar RSUScenario.node[40].nic.mac1609_4 	NumInternalContention 	0
scalar RSUScenario.node[40].nic.mac1609_4 	totalBusyTime 	1.386262680872
scalar RSUScenario.node[40].nic.mac1609_4 	throughputMetricMac:last 	10.342538092193
attr source  throughputSignalMac
attr title  "throughputMetricMac, last"
scalar RSUScenario.node[40].nic.mac1609_4 	throughputMetricMac:count 	2068
attr source  throughputSignalMac
attr title  "throughputMetricMac, count"
scalar RSUScenario.node[40].nic.mac1609_4 	throughputMetricMac:sum 	10964.622736885
attr source  throughputSignalMac
attr title  "throughputMetricMac, sum"
scalar RSUScenario.node[40].nic.mac1609_4 	throughputMetricMac:mean 	5.3020419424007
attr source  throughputSignalMac
attr title  "throughputMetricMac, mean"
scalar RSUScenario.node[40].veinsmobility 	startTime 	184.8
scalar RSUScenario.node[40].veinsmobility 	totalTime 	15.1
scalar RSUScenario.node[40].veinsmobility 	stopTime 	200
scalar RSUScenario.node[40].veinsmobility 	minSpeed 	0
scalar RSUScenario.node[40].veinsmobility 	maxSpeed 	9.6146447517193
scalar RSUScenario.node[40].veinsmobility 	totalDistance 	65.796974622956
scalar RSUScenario.node[40].veinsmobility 	totalCO2Emission 	28.722431884873
scalar RSUScenario.node[41].nic.phy80211p 	busyTime 	0.089093333333331
scalar RSUScenario.node[41].nic.mac1609_4 	throughputMetricMac 	8.8321674434928
scalar RSUScenario.node[41].nic.mac1609_4 	throughputMbps 	0.03052397068471
scalar RSUScenario.node[41].nic.mac1609_4 	throughputControlMbps 	0
scalar RSUScenario.node[41].nic.mac1609_4 	ReceivedUnicastPackets 	0
scalar RSUScenario.node[41].nic.mac1609_4 	ReceivedBroadcasts 	1766
scalar RSUScenario.node[41].nic.mac1609_4 	SentPackets 	126
scalar RSUScenario.node[41].nic.mac1609_4 	SNIRLostPackets 	33
scalar RSUScenario.node[41].nic.mac1609_4 	RXTXLostPackets 	0
scalar RSUScenario.node[41].nic.mac1609_4 	TotalLostPackets 	33
scalar RSUScenario.node[41].nic.mac1609_4 	DroppedPacketsInMac 	0
scalar RSUScenario.node[41].nic.mac1609_4 	TooLittleTime 	0
scalar RSUScenario.node[41].nic.mac1609_4 	TimesIntoBackoff 	126
scalar RSUScenario.node[41].nic.mac1609_4 	SlotsBackoff 	209
scalar RSUScenario.node[41].nic.mac1609_4 	NumInternalContention 	0
scalar RSUScenario.node[41].nic.mac1609_4 	totalBusyTime 	1.181564620867
scalar RSUScenario.node[41].nic.mac1609_4 	throughputMetricMac:last 	8.8321674434928
attr source  throughputSignalMac
attr title  "throughputMetricMac, last"
scalar RSUScenario.node[41].nic.mac1609_4 	throughputMetricMac:count 	1766
attr source  throughputSignalMac
attr title  "throughputMetricMac, count"
scalar RSUScenario.node[41].nic.mac1609_4 	throughputMetricMac:sum 	7963.9870358903
attr source  throughputSignalMac
attr title  "throughputMetricMac, sum"
scalar RSUScenario.node[41].nic.mac1609_4 	throughputMetricMac:mean 	4.5096189331202
attr source  throughputSignalMac
attr title  "throughputMetricMac, mean"
scalar RSUScenario.node[41].veinsmobility 	startTime 	187.4
scalar RSUScenario.node[41].veinsmobility 	totalTime 	12.5
scalar RSUScenario.node[41].veinsmobility 	stopTime 	200
scalar RSUScenario.node[41].veinsmobility 	minSpeed 	0.16250704811017
scalar RSUScenario.node[41].veinsmobility 	maxSpeed 	9.6936748169282
scalar RSUScenario.node[41].veinsmobility 	totalDistance 	58.15360773702
scalar RSUScenario.node[41].veinsmobility 	totalCO2Emission 	25.535775143382
scalar RSUScenario.node[42].nic.phy80211p 	busyTime 	0.089187878787877
scalar RSUScenario.node[42].nic.mac1609_4 	throughputMetricMac 	7.076736655934
scalar RSUScenario.node[42].nic.mac1609_4 	throughputMbps 	0.024457201882907
scalar RSUScenario.node[42].nic.mac1609_4 	throughputControlMbps 	0
scalar RSUScenario.node[42].nic.mac1609_4 	ReceivedUnicastPackets 	0
scalar RSUScenario.node[42].nic.mac1609_4 	ReceivedBroadcasts 	1415
scalar RSUScenario.node[42].nic.mac1609_4 	SentPackets 	99
scalar RSUScenario.node[42].nic.mac1609_4 	SNIRLostPackets 	0
scalar RSUScenario.node[42].nic.mac1609_4 	RXTXLostPackets 	30
scalar RSUScenario.node[42].nic.mac1609_4 	TotalLostPackets 	30
scalar RSUScenario.node[42].nic.mac1609_4 	DroppedPacketsInMac 	0
scalar RSUScenario.node[42].nic.mac1609_4 	TooLittleTime 	0
scalar RSUScenario.node[42].nic.mac1609_4 	TimesIntoBackoff 	99
scalar RSUScenario.node[42].nic.mac1609_4 	SlotsBackoff 	146
scalar RSUScenario.node[42].nic.mac1609_4 	NumInternalContention 	0
scalar RSUScenario.node[42].nic.mac1609_4 	totalBusyTime 	0.944835
scalar RSUScenario.node[42].nic.mac1609_4 	throughputMetricMac:last 	7.076736655934
attr source  throughputSignalMac
attr title  "throughputMetricMac, last"
scalar RSUScenario.node[42].nic.mac1609_4 	throughputMetricMac:count 	1415
attr source  throughputSignalMac
attr title  "throughputMetricMac, count"
scalar RSUScenario.node[42].nic.mac1609_4 	throughputMetricMac:sum 	5090.6495051092
attr source  throughputSignalMac
attr title  "throughputMetricMac, sum"
scalar RSUScenario.node[42].nic.mac1609_4 	throughputMetricMac:mean 	3.5976321590878
attr source  throughputSignalMac
attr title  "throughputMetricMac, mean"
scalar RSUScenario.node[42].veinsmobility 	startTime 	190.1
scalar RSUScenario.node[42].veinsmobility 	totalTime 	9.8
scalar RSUScenario.node[42].veinsmobility 	stopTime 	200
scalar RSUScenario.node[42].veinsmobility 	minSpeed 	0.25042752398225
scalar RSUScenario.node[42].veinsmobility 	maxSpeed 	9.8830903956957
scalar RSUScenario.node[42].veinsmobility 	totalDistance 	49.334652904052
scalar RSUScenario.node[42].veinsmobility 	totalCO2Emission 	23.394146380943
scalar RSUScenario.node[43].nic.phy80211p 	busyTime 	0.09325808219178
scalar RSUScenario.node[43].nic.mac1609_4 	throughputMetricMac 	5.3163231462072
scalar RSUScenario.node[43].nic.mac1609_4 	throughputMbps 	0.018373212793292
scalar RSUScenario.node[43].nic.mac1609_4 	throughputControlMbps 	0
scalar RSUScenario.node[43].nic.mac1609_4 	ReceivedUnicastPackets 	0
scalar RSUScenario.node[43].nic.mac1609_4 	ReceivedBroadcasts 	1063
scalar RSUScenario.node[43].nic.mac1609_4 	SentPackets 	73
scalar RSUScenario.node[43].nic.mac1609_4 	SNIRLostPackets 	28
scalar RSUScenario.node[43].nic.mac1609_4 	RXTXLostPackets 	0
scalar RSUScenario.node[43].nic.mac1609_4 	TotalLostPackets 	28
scalar RSUScenario.node[43].nic.mac1609_4 	DroppedPacketsInMac 	0
scalar RSUScenario.node[43].nic.mac1609_4 	TooLittleTime 	0
scalar RSUScenario.node[43].nic.mac1609_4 	TimesIntoBackoff 	96
scalar RSUScenario.node[43].nic.mac1609_4 	SlotsBackoff 	158
scalar RSUScenario.node[43].nic.mac1609_4 	NumInternalContention 	0
scalar RSUScenario.node[43].nic.mac1609_4 	totalBusyTime 	0.708937
scalar RSUScenario.node[43].nic.mac1609_4 	throughputMetricMac:last 	5.3163231462072
attr source  throughputSignalMac
attr title  "throughputMetricMac, last"
scalar RSUScenario.node[43].nic.mac1609_4 	throughputMetricMac:count 	1063
attr source  throughputSignalMac
attr title  "throughputMetricMac, count"
scalar RSUScenario.node[43].nic.mac1609_4 	throughputMetricMac:sum 	2861.3358967997
attr source  throughputSignalMac
attr title  "throughputMetricMac, sum"
scalar RSUScenario.node[43].nic.mac1609_4 	throughputMetricMac:mean 	2.6917553121352
attr source  throughputSignalMac
attr title  "throughputMetricMac, mean"
scalar RSUScenario.node[43].veinsmobility 	startTime 	192.7
scalar RSUScenario.node[43].veinsmobility 	totalTime 	7.2
scalar RSUScenario.node[43].veinsmobility 	stopTime 	200
scalar RSUScenario.node[43].veinsmobility 	minSpeed 	0.25837736929301
scalar RSUScenario.node[43].veinsmobility 	maxSpeed 	8.5575738721351
scalar RSUScenario.node[43].veinsmobility 	totalDistance 	36.907281915621
scalar RSUScenario.node[43].veinsmobility 	totalCO2Emission 	17.587179670678
scalar RSUScenario.node[8].nic.phy80211p 	busyTime 	0.1046768657534
scalar RSUScenario.node[8].nic.mac1609_4 	throughputMetricMac 	148.63368024412
scalar RSUScenario.node[8].nic.mac1609_4 	throughputMbps 	0.51409924271816
scalar RSUScenario.node[8].nic.mac1609_4 	throughputControlMbps 	0
scalar RSUScenario.node[8].nic.mac1609_4 	ReceivedUnicastPackets 	0
scalar RSUScenario.node[8].nic.mac1609_4 	ReceivedBroadcasts 	29718
scalar RSUScenario.node[8].nic.mac1609_4 	SentPackets 	1826
scalar RSUScenario.node[8].nic.mac1609_4 	SNIRLostPackets 	869
scalar RSUScenario.node[8].nic.mac1609_4 	RXTXLostPackets 	0
scalar RSUScenario.node[8].nic.mac1609_4 	TotalLostPackets 	869
scalar RSUScenario.node[8].nic.mac1609_4 	DroppedPacketsInMac 	0
scalar RSUScenario.node[8].nic.mac1609_4 	TooLittleTime 	0
scalar RSUScenario.node[8].nic.mac1609_4 	TimesIntoBackoff 	1827
scalar RSUScenario.node[8].nic.mac1609_4 	SlotsBackoff 	2759
scalar RSUScenario.node[8].nic.mac1609_4 	NumInternalContention 	0
scalar RSUScenario.node[8].nic.mac1609_4 	totalBusyTime 	19.9748582689
scalar RSUScenario.node[8].nic.mac1609_4 	throughputMetricMac:last 	148.63368024412
attr source  throughputSignalMac
attr title  "throughputMetricMac, last"
scalar RSUScenario.node[8].nic.mac1609_4 	throughputMetricMac:count 	29718
attr source  throughputSignalMac
attr title  "throughputMetricMac, count"
scalar RSUScenario.node[8].nic.mac1609_4 	throughputMetricMac:sum 	3436200.6438576
attr source  throughputSignalMac
attr title  "throughputMetricMac, sum"
scalar RSUScenario.node[8].nic.mac1609_4 	throughputMetricMac:mean 	115.62691445782
attr source  throughputSignalMac
attr title  "throughputMetricMac, mean"
scalar RSUScenario.node[8].veinsmobility 	startTime 	17.5
scalar RSUScenario.node[8].veinsmobility 	totalTime 	182.4
scalar RSUScenario.node[8].veinsmobility 	stopTime 	200
scalar RSUScenario.node[8].veinsmobility 	minSpeed 	3.3149718504943e-05
scalar RSUScenario.node[8].veinsmobility 	maxSpeed 	27.779695479325
scalar RSUScenario.node[8].veinsmobility 	totalDistance 	2493.3207883804
scalar RSUScenario.node[8].veinsmobility 	totalCO2Emission 	606.33284903364
scalar RSUScenario.node[44].nic.phy80211p 	busyTime 	0.094956521739132
scalar RSUScenario.node[44].nic.mac1609_4 	throughputMetricMac 	3.4358431676888
scalar RSUScenario.node[44].nic.mac1609_4 	throughputMbps 	0.011874273987532
scalar RSUScenario.node[44].nic.mac1609_4 	throughputControlMbps 	0
scalar RSUScenario.node[44].nic.mac1609_4 	ReceivedUnicastPackets 	0
scalar RSUScenario.node[44].nic.mac1609_4 	ReceivedBroadcasts 	687
scalar RSUScenario.node[44].nic.mac1609_4 	SentPackets 	46
scalar RSUScenario.node[44].nic.mac1609_4 	SNIRLostPackets 	13
scalar RSUScenario.node[44].nic.mac1609_4 	RXTXLostPackets 	0
scalar RSUScenario.node[44].nic.mac1609_4 	TotalLostPackets 	13
scalar RSUScenario.node[44].nic.mac1609_4 	DroppedPacketsInMac 	0
scalar RSUScenario.node[44].nic.mac1609_4 	TooLittleTime 	0
scalar RSUScenario.node[44].nic.mac1609_4 	TimesIntoBackoff 	46
scalar RSUScenario.node[44].nic.mac1609_4 	SlotsBackoff 	67
scalar RSUScenario.node[44].nic.mac1609_4 	NumInternalContention 	0
scalar RSUScenario.node[44].nic.mac1609_4 	totalBusyTime 	0.457438
scalar RSUScenario.node[44].nic.mac1609_4 	throughputMetricMac:last 	3.4358431676888
attr source  throughputSignalMac
attr title  "throughputMetricMac, last"
scalar RSUScenario.node[44].nic.mac1609_4 	throughputMetricMac:count 	687
attr source  throughputSignalMac
attr title  "throughputMetricMac, count"
scalar RSUScenario.node[44].nic.mac1609_4 	throughputMetricMac:sum 	1190.5072806268
attr source  throughputSignalMac
attr title  "throughputMetricMac, sum"
scalar RSUScenario.node[44].nic.mac1609_4 	throughputMetricMac:mean 	1.7329072498207
attr source  throughputSignalMac
attr title  "throughputMetricMac, mean"
scalar RSUScenario.node[44].veinsmobility 	startTime 	195.4
scalar RSUScenario.node[44].veinsmobility 	totalTime 	4.5
scalar RSUScenario.node[44].veinsmobility 	stopTime 	200
scalar RSUScenario.node[44].veinsmobility 	minSpeed 	0.25666146934405
scalar RSUScenario.node[44].veinsmobility 	maxSpeed 	7.4744861834779
scalar RSUScenario.node[44].veinsmobility 	totalDistance 	20.178826678902
scalar RSUScenario.node[44].veinsmobility 	totalCO2Emission 	12.512823055339
scalar RSUScenario.node[45].nic.phy80211p 	busyTime 	0.099840000000001
scalar RSUScenario.node[45].nic.mac1609_4 	throughputMetricMac 	1.6003927414428
scalar RSUScenario.node[45].nic.mac1609_4 	throughputMbps 	0.0055309573144265
scalar RSUScenario.node[45].nic.mac1609_4 	throughputControlMbps 	0
scalar RSUScenario.node[45].nic.mac1609_4 	ReceivedUnicastPackets 	0
scalar RSUScenario.node[45].nic.mac1609_4 	ReceivedBroadcasts 	320
scalar RSUScenario.node[45].nic.mac1609_4 	SentPackets 	20
scalar RSUScenario.node[45].nic.mac1609_4 	SNIRLostPackets 	0
scalar RSUScenario.node[45].nic.mac1609_4 	RXTXLostPackets 	0
scalar RSUScenario.node[45].nic.mac1609_4 	TotalLostPackets 	0
scalar RSUScenario.node[45].nic.mac1609_4 	DroppedPacketsInMac 	0
scalar RSUScenario.node[45].nic.mac1609_4 	TooLittleTime 	0
scalar RSUScenario.node[45].nic.mac1609_4 	TimesIntoBackoff 	20
scalar RSUScenario.node[45].nic.mac1609_4 	SlotsBackoff 	37
scalar RSUScenario.node[45].nic.mac1609_4 	NumInternalContention 	0
scalar RSUScenario.node[45].nic.mac1609_4 	totalBusyTime 	0.21218
scalar RSUScenario.node[45].nic.mac1609_4 	throughputMetricMac:last 	1.6003927414428
attr source  throughputSignalMac
attr title  "throughputMetricMac, last"
scalar RSUScenario.node[45].nic.mac1609_4 	throughputMetricMac:count 	320
attr source  throughputSignalMac
attr title  "throughputMetricMac, count"
scalar RSUScenario.node[45].nic.mac1609_4 	throughputMetricMac:sum 	257.69450526334
attr source  throughputSignalMac
attr title  "throughputMetricMac, sum"
scalar RSUScenario.node[45].nic.mac1609_4 	throughputMetricMac:mean 	0.80529532894794
attr source  throughputSignalMac
attr title  "throughputMetricMac, mean"
[...]
scalar RSUScenario.node[9].veinsmobility 	maxSpeed 	27.779594284073
scalar RSUScenario.node[9].veinsmobility 	totalDistance 	2437.9278135925
scalar RSUScenario.node[9].veinsmobility 	totalCO2Emission 	598.72367657899
scalar RSUScenario.node[10].nic.phy80211p 	busyTime 	0.10994383747176
scalar RSUScenario.node[10].nic.mac1609_4 	throughputMetricMac 	151.60955474452
scalar RSUScenario.node[10].nic.mac1609_4 	throughputMbps 	0.5241306705831
scalar RSUScenario.node[10].nic.mac1609_4 	throughputControlMbps 	0
scalar RSUScenario.node[10].nic.mac1609_4 	ReceivedUnicastPackets 	0
scalar RSUScenario.node[10].nic.mac1609_4 	ReceivedBroadcasts 	30313
scalar RSUScenario.node[10].nic.mac1609_4 	SentPackets 	1773
scalar RSUScenario.node[10].nic.mac1609_4 	SNIRLostPackets 	889
scalar RSUScenario.node[10].nic.mac1609_4 	RXTXLostPackets 	0
scalar RSUScenario.node[10].nic.mac1609_4 	TotalLostPackets 	889
scalar RSUScenario.node[10].nic.mac1609_4 	DroppedPacketsInMac 	0
scalar RSUScenario.node[10].nic.mac1609_4 	TooLittleTime 	0
scalar RSUScenario.node[10].nic.mac1609_4 	TimesIntoBackoff 	1773
scalar RSUScenario.node[10].nic.mac1609_4 	SlotsBackoff 	2693
scalar RSUScenario.node[10].nic.mac1609_4 	NumInternalContention 	0
scalar RSUScenario.node[10].nic.mac1609_4 	totalBusyTime 	20.281837
scalar RSUScenario.node[10].nic.mac1609_4 	throughputMetricMac:last 	151.60955474452
attr source  throughputSignalMac
attr title  "throughputMetricMac, last"
scalar RSUScenario.node[10].nic.mac1609_4 	throughputMetricMac:count 	30313
attr source  throughputSignalMac
attr title  "throughputMetricMac, count"
scalar RSUScenario.node[10].nic.mac1609_4 	throughputMetricMac:sum 	3506847.1586027
attr source  throughputSignalMac
attr title  "throughputMetricMac, sum"
scalar RSUScenario.node[10].nic.mac1609_4 	throughputMetricMac:mean 	115.68789491646
attr source  throughputSignalMac
attr title  "throughputMetricMac, mean"
scalar RSUScenario.node[10].veinsmobility 	startTime 	22.8
scalar RSUScenario.node[10].veinsmobility 	totalTime 	177.1
scalar RSUScenario.node[10].veinsmobility 	stopTime 	200
scalar RSUScenario.node[10].veinsmobility 	minSpeed 	0
scalar RSUScenario.node[10].veinsmobility 	maxSpeed 	27.779247997364
scalar RSUScenario.node[10].veinsmobility 	totalDistance 	2368.9886880624
scalar RSUScenario.node[10].veinsmobility 	totalCO2Emission 	605.64394601598
scalar RSUScenario.node[11].nic.phy80211p 	busyTime 	0.11138089347076
scalar RSUScenario.node[11].nic.mac1609_4 	throughputMetricMac 	152.25474421005
scalar RSUScenario.node[11].nic.mac1609_4 	throughputMbps 	0.52638445243095
scalar RSUScenario.node[11].nic.mac1609_4 	throughputControlMbps 	0
scalar RSUScenario.node[11].nic.mac1609_4 	ReceivedUnicastPackets 	0
scalar RSUScenario.node[11].nic.mac1609_4 	ReceivedBroadcasts 	30442
scalar RSUScenario.node[11].nic.mac1609_4 	SentPackets 	1747
scalar RSUScenario.node[11].nic.mac1609_4 	SNIRLostPackets 	704
scalar RSUScenario.node[11].nic.mac1609_4 	RXTXLostPackets 	2
scalar RSUScenario.node[11].nic.mac1609_4 	TotalLostPackets 	706
scalar RSUScenario.node[11].nic.mac1609_4 	DroppedPacketsInMac 	0
scalar RSUScenario.node[11].nic.mac1609_4 	TooLittleTime 	0
scalar RSUScenario.node[11].nic.mac1609_4 	TimesIntoBackoff 	1748
scalar RSUScenario.node[11].nic.mac1609_4 	SlotsBackoff 	2676
scalar RSUScenario.node[11].nic.mac1609_4 	NumInternalContention 	0
scalar RSUScenario.node[11].nic.mac1609_4 	totalBusyTime 	20.255331
scalar RSUScenario.node[11].nic.mac1609_4 	throughputMetricMac:last 	152.25474421005
attr source  throughputSignalMac
attr title  "throughputMetricMac, last"
scalar RSUScenario.node[11].nic.mac1609_4 	throughputMetricMac:count 	30442
attr source  throughputSignalMac
attr title  "throughputMetricMac, count"
scalar RSUScenario.node[11].nic.mac1609_4 	throughputMetricMac:sum 	3497447.3201055
attr source  throughputSignalMac
attr title  "throughputMetricMac, sum"
scalar RSUScenario.node[11].nic.mac1609_4 	throughputMetricMac:mean 	114.88888115451
attr source  throughputSignalMac
attr title  "throughputMetricMac, mean"
scalar RSUScenario.node[11].veinsmobility 	startTime 	25.4
scalar RSUScenario.node[11].veinsmobility 	totalTime 	174.5
scalar RSUScenario.node[11].veinsmobility 	stopTime 	200
scalar RSUScenario.node[11].veinsmobility 	minSpeed 	5.2647337329042e-14
scalar RSUScenario.node[11].veinsmobility 	maxSpeed 	27.779618985592
scalar RSUScenario.node[11].veinsmobility 	totalDistance 	2313.2158913721
scalar RSUScenario.node[11].veinsmobility 	totalCO2Emission 	594.12426732287
scalar RSUScenario.node[12].nic.phy80211p 	busyTime 	0.1117060465116
scalar RSUScenario.node[12].nic.mac1609_4 	throughputMetricMac 	150.69928695714
scalar RSUScenario.node[12].nic.mac1609_4 	throughputMbps 	0.52112882744024
scalar RSUScenario.node[12].nic.mac1609_4 	throughputControlMbps 	0
scalar RSUScenario.node[12].nic.mac1609_4 	ReceivedUnicastPackets 	0
scalar RSUScenario.node[12].nic.mac1609_4 	ReceivedBroadcasts 	30131
scalar RSUScenario.node[12].nic.mac1609_4 	SentPackets 	1721
scalar RSUScenario.node[12].nic.mac1609_4 	SNIRLostPackets 	629
scalar RSUScenario.node[12].nic.mac1609_4 	RXTXLostPackets 	0
scalar RSUScenario.node[12].nic.mac1609_4 	TotalLostPackets 	629
scalar RSUScenario.node[12].nic.mac1609_4 	DroppedPacketsInMac 	0
scalar RSUScenario.node[12].nic.mac1609_4 	TooLittleTime 	0
scalar RSUScenario.node[12].nic.mac1609_4 	TimesIntoBackoff 	3442
scalar RSUScenario.node[12].nic.mac1609_4 	SlotsBackoff 	5122
scalar RSUScenario.node[12].nic.mac1609_4 	NumInternalContention 	0
scalar RSUScenario.node[12].nic.mac1609_4 	totalBusyTime 	20.030473
scalar RSUScenario.node[12].nic.mac1609_4 	throughputMetricMac:last 	150.69928695714
attr source  throughputSignalMac
attr title  "throughputMetricMac, last"
scalar RSUScenario.node[12].nic.mac1609_4 	throughputMetricMac:count 	30131
attr source  throughputSignalMac
attr title  "throughputMetricMac, count"
scalar RSUScenario.node[12].nic.mac1609_4 	throughputMetricMac:sum 	3398682.1539275
attr source  throughputSignalMac
attr title  "throughputMetricMac, sum"
scalar RSUScenario.node[12].nic.mac1609_4 	throughputMetricMac:mean 	112.79685884728
attr source  throughputSignalMac
attr title  "throughputMetricMac, mean"
scalar RSUScenario.node[12].veinsmobility 	startTime 	28
scalar RSUScenario.node[12].veinsmobility 	totalTime 	171.9
scalar RSUScenario.node[12].veinsmobility 	stopTime 	200
scalar RSUScenario.node[12].veinsmobility 	minSpeed 	1.72850631706e-12
scalar RSUScenario.node[12].veinsmobility 	maxSpeed 	27.779703238432
scalar RSUScenario.node[12].veinsmobility 	totalDistance 	2257.8318148317
scalar RSUScenario.node[12].veinsmobility 	totalCO2Emission 	581.96260047518
scalar RSUScenario.node[13].nic.phy80211p 	busyTime 	0.11084983451535
scalar RSUScenario.node[13].nic.mac1609_4 	throughputMetricMac 	146.41802865848
scalar RSUScenario.node[13].nic.mac1609_4 	throughputMbps 	0.50626077759452
scalar RSUScenario.node[13].nic.mac1609_4 	throughputControlMbps 	0
scalar RSUScenario.node[13].nic.mac1609_4 	ReceivedUnicastPackets 	0
scalar RSUScenario.node[13].nic.mac1609_4 	ReceivedBroadcasts 	29275
scalar RSUScenario.node[13].nic.mac1609_4 	SentPackets 	1693
scalar RSUScenario.node[13].nic.mac1609_4 	SNIRLostPackets 	758
scalar RSUScenario.node[13].nic.mac1609_4 	RXTXLostPackets 	131
scalar RSUScenario.node[13].nic.mac1609_4 	TotalLostPackets 	889
scalar RSUScenario.node[13].nic.mac1609_4 	DroppedPacketsInMac 	0
scalar RSUScenario.node[13].nic.mac1609_4 	TooLittleTime 	0
scalar RSUScenario.node[13].nic.mac1609_4 	TimesIntoBackoff 	2991
scalar RSUScenario.node[13].nic.mac1609_4 	SlotsBackoff 	4421
scalar RSUScenario.node[13].nic.mac1609_4 	NumInternalContention 	0
scalar RSUScenario.node[13].nic.mac1609_4 	totalBusyTime 	19.532589
scalar RSUScenario.node[13].nic.mac1609_4 	throughputMetricMac:last 	146.41802865848
attr source  throughputSignalMac
attr title  "throughputMetricMac, last"
scalar RSUScenario.node[13].nic.mac1609_4 	throughputMetricMac:count 	29275
attr source  throughputSignalMac
attr title  "throughputMetricMac, count"
scalar RSUScenario.node[13].nic.mac1609_4 	throughputMetricMac:sum 	3186622.8829243
attr source  throughputSignalMac
attr title  "throughputMetricMac, sum"
scalar RSUScenario.node[13].nic.mac1609_4 	throughputMetricMac:mean 	108.85133673524
attr source  throughputSignalMac
attr title  "throughputMetricMac, mean"
scalar RSUScenario.node[13].veinsmobility 	startTime 	30.8
scalar RSUScenario.node[13].veinsmobility 	totalTime 	169.1
scalar RSUScenario.node[13].veinsmobility 	stopTime 	200
scalar RSUScenario.node[13].veinsmobility 	minSpeed 	2.8000662478463e-11
scalar RSUScenario.node[13].veinsmobility 	maxSpeed 	27.779008819787
scalar RSUScenario.node[13].veinsmobility 	totalDistance 	2201.2484864343
scalar RSUScenario.node[13].veinsmobility 	totalCO2Emission 	568.04634468203
scalar RSUScenario.node[1].nic.phy80211p 	busyTime 	0.078457728194745
scalar RSUScenario.node[1].nic.mac1609_4 	throughputMetricMac 	123.22775472886
scalar RSUScenario.node[1].nic.mac1609_4 	throughputMbps 	0.42617633262884
scalar RSUScenario.node[1].nic.mac1609_4 	throughputControlMbps 	0
scalar RSUScenario.node[1].nic.mac1609_4 	ReceivedUnicastPackets 	0
scalar RSUScenario.node[1].nic.mac1609_4 	ReceivedBroadcasts 	24638
scalar RSUScenario.node[1].nic.mac1609_4 	SentPackets 	1973
scalar RSUScenario.node[1].nic.mac1609_4 	SNIRLostPackets 	138
scalar RSUScenario.node[1].nic.mac1609_4 	RXTXLostPackets 	0
scalar RSUScenario.node[1].nic.mac1609_4 	TotalLostPackets 	138
scalar RSUScenario.node[1].nic.mac1609_4 	DroppedPacketsInMac 	0
scalar RSUScenario.node[1].nic.mac1609_4 	TooLittleTime 	0
scalar RSUScenario.node[1].nic.mac1609_4 	TimesIntoBackoff 	1974
scalar RSUScenario.node[1].nic.mac1609_4 	SlotsBackoff 	2938
scalar RSUScenario.node[1].nic.mac1609_4 	NumInternalContention 	0
scalar RSUScenario.node[1].nic.mac1609_4 	totalBusyTime 	16.636973000003
scalar RSUScenario.node[1].nic.mac1609_4 	throughputMetricMac:last 	123.22775472886
attr source  throughputSignalMac
attr title  "throughputMetricMac, last"
scalar RSUScenario.node[1].nic.mac1609_4 	throughputMetricMac:count 	24638
attr source  throughputSignalMac
attr title  "throughputMetricMac, count"
scalar RSUScenario.node[1].nic.mac1609_4 	throughputMetricMac:sum 	2529933.9337443
attr source  throughputSignalMac
attr title  "throughputMetricMac, sum"
scalar RSUScenario.node[1].nic.mac1609_4 	throughputMetricMac:mean 	102.68422492671
attr source  throughputSignalMac
attr title  "throughputMetricMac, mean"
scalar RSUScenario.node[1].veinsmobility 	startTime 	2.8
scalar RSUScenario.node[1].veinsmobility 	totalTime 	197.1
scalar RSUScenario.node[1].veinsmobility 	stopTime 	200
scalar RSUScenario.node[1].veinsmobility 	minSpeed 	9.9252092916552e-12
scalar RSUScenario.node[1].veinsmobility 	maxSpeed 	27.779948902135
scalar RSUScenario.node[1].veinsmobility 	totalDistance 	2839.7068538305
scalar RSUScenario.node[1].veinsmobility 	totalCO2Emission 	674.240457963
scalar RSUScenario.node[2].nic.phy80211p 	busyTime 	0.083300921187325
scalar RSUScenario.node[2].nic.mac1609_4 	throughputMetricMac 	129.74312807609
scalar RSUScenario.node[2].nic.mac1609_4 	throughputMbps 	0.44869345914817
scalar RSUScenario.node[2].nic.mac1609_4 	throughputControlMbps 	0
scalar RSUScenario.node[2].nic.mac1609_4 	ReceivedUnicastPackets 	0
scalar RSUScenario.node[2].nic.mac1609_4 	ReceivedBroadcasts 	25941
scalar RSUScenario.node[2].nic.mac1609_4 	SentPackets 	1955
scalar RSUScenario.node[2].nic.mac1609_4 	SNIRLostPackets 	124
scalar RSUScenario.node[2].nic.mac1609_4 	RXTXLostPackets 	0
scalar RSUScenario.node[2].nic.mac1609_4 	TotalLostPackets 	124
scalar RSUScenario.node[2].nic.mac1609_4 	DroppedPacketsInMac 	0
scalar RSUScenario.node[2].nic.mac1609_4 	TooLittleTime 	0
scalar RSUScenario.node[2].nic.mac1609_4 	TimesIntoBackoff 	1956
scalar RSUScenario.node[2].nic.mac1609_4 	SlotsBackoff 	2949
scalar RSUScenario.node[2].nic.mac1609_4 	NumInternalContention 	0
scalar RSUScenario.node[2].nic.mac1609_4 	totalBusyTime 	17.431382326199
scalar RSUScenario.node[2].nic.mac1609_4 	throughputMetricMac:last 	129.74312807609
attr source  throughputSignalMac
attr title  "throughputMetricMac, last"
scalar RSUScenario.node[2].nic.mac1609_4 	throughputMetricMac:count 	25941
attr source  throughputSignalMac
attr title  "throughputMetricMac, count"
scalar RSUScenario.node[2].nic.mac1609_4 	throughputMetricMac:sum 	2749410.1616155
attr source  throughputSignalMac
attr title  "throughputMetricMac, sum"
scalar RSUScenario.node[2].nic.mac1609_4 	throughputMetricMac:mean 	105.98705376105
attr source  throughputSignalMac
attr title  "throughputMetricMac, mean"
scalar RSUScenario.node[2].veinsmobility 	startTime 	4.6
scalar RSUScenario.node[2].veinsmobility 	totalTime 	195.3
scalar RSUScenario.node[2].veinsmobility 	stopTime 	200
scalar RSUScenario.node[2].veinsmobility 	minSpeed 	3.0170843601e-10
scalar RSUScenario.node[2].veinsmobility 	maxSpeed 	27.779536658977
scalar RSUScenario.node[2].veinsmobility 	totalDistance 	2783.3705569063
scalar RSUScenario.node[2].veinsmobility 	totalCO2Emission 	664.13753911547
scalar RSUScenario.node[3].nic.phy80211p 	busyTime 	0.08710670108416
scalar RSUScenario.node[3].nic.mac1609_4 	throughputMetricMac 	134.7445979921
scalar RSUScenario.node[3].nic.mac1609_4 	throughputMbps 	0.46600254623323
scalar RSUScenario.node[3].nic.mac1609_4 	throughputControlMbps 	0
scalar RSUScenario.node[3].nic.mac1609_4 	ReceivedUnicastPackets 	0
scalar RSUScenario.node[3].nic.mac1609_4 	ReceivedBroadcasts 	26941
scalar RSUScenario.node[3].nic.mac1609_4 	SentPackets 	1938
scalar RSUScenario.node[3].nic.mac1609_4 	SNIRLostPackets 	81
scalar RSUScenario.node[3].nic.mac1609_4 	RXTXLostPackets 	28
scalar RSUScenario.node[3].nic.mac1609_4 	TotalLostPackets 	109
scalar RSUScenario.node[3].nic.mac1609_4 	DroppedPacketsInMac 	0
scalar RSUScenario.node[3].nic.mac1609_4 	TooLittleTime 	0
scalar RSUScenario.node[3].nic.mac1609_4 	TimesIntoBackoff 	2045
scalar RSUScenario.node[3].nic.mac1609_4 	SlotsBackoff 	3016
scalar RSUScenario.node[3].nic.mac1609_4 	NumInternalContention 	0
scalar RSUScenario.node[3].nic.mac1609_4 	totalBusyTime 	18.055914
scalar RSUScenario.node[3].nic.mac1609_4 	throughputMetricMac:last 	134.7445979921
attr source  throughputSignalMac
attr title  "throughputMetricMac, last"
scalar RSUScenario.node[3].nic.mac1609_4 	throughputMetricMac:count 	26941
attr source  throughputSignalMac
attr title  "throughputMetricMac, count"
scalar RSUScenario.node[3].nic.mac1609_4 	throughputMetricMac:sum 	2927321.6802242
attr source  throughputSignalMac
attr title  "throughputMetricMac, sum"
scalar RSUScenario.node[3].nic.mac1609_4 	throughputMetricMac:mean 	108.65675662463
attr source  throughputSignalMac
attr title  "throughputMetricMac, mean"
scalar RSUScenario.node[3].veinsmobility 	startTime 	6.3
scalar RSUScenario.node[3].veinsmobility 	totalTime 	193.6
scalar RSUScenario.node[3].veinsmobility 	stopTime 	200
scalar RSUScenario.node[3].veinsmobility 	minSpeed 	4.6712660822857e-09
scalar RSUScenario.node[3].veinsmobility 	maxSpeed 	27.778777530561
scalar RSUScenario.node[3].veinsmobility 	totalDistance 	2730.7313286397
scalar RSUScenario.node[3].veinsmobility 	totalCO2Emission 	652.09986489073
scalar RSUScenario.node[4].nic.phy80211p 	busyTime 	0.090618625000002
scalar RSUScenario.node[4].nic.mac1609_4 	throughputMetricMac 	137.69546529529
scalar RSUScenario.node[4].nic.mac1609_4 	throughputMbps 	0.47617673657825
scalar RSUScenario.node[4].nic.mac1609_4 	throughputControlMbps 	0
scalar RSUScenario.node[4].nic.mac1609_4 	ReceivedUnicastPackets 	0
scalar RSUScenario.node[4].nic.mac1609_4 	ReceivedBroadcasts 	27531
scalar RSUScenario.node[4].nic.mac1609_4 	SentPackets 	1921
scalar RSUScenario.node[4].nic.mac1609_4 	SNIRLostPackets 	333
scalar RSUScenario.node[4].nic.mac1609_4 	RXTXLostPackets 	0
scalar RSUScenario.node[4].nic.mac1609_4 	TotalLostPackets 	333
scalar RSUScenario.node[4].nic.mac1609_4 	DroppedPacketsInMac 	0
scalar RSUScenario.node[4].nic.mac1609_4 	TooLittleTime 	0
scalar RSUScenario.node[4].nic.mac1609_4 	TimesIntoBackoff 	1921
scalar RSUScenario.node[4].nic.mac1609_4 	SlotsBackoff 	2908
scalar RSUScenario.node[4].nic.mac1609_4 	NumInternalContention 	0
scalar RSUScenario.node[4].nic.mac1609_4 	totalBusyTime 	18.466847511747
scalar RSUScenario.node[4].nic.mac1609_4 	throughputMetricMac:last 	137.69546529529
attr source  throughputSignalMac
attr title  "throughputMetricMac, last"
scalar RSUScenario.node[4].nic.mac1609_4 	throughputMetricMac:count 	27531
attr source  throughputSignalMac
attr title  "throughputMetricMac, count"
scalar RSUScenario.node[4].nic.mac1609_4 	throughputMetricMac:sum 	3039883.1338557
attr source  throughputSignalMac
attr title  "throughputMetricMac, sum"
scalar RSUScenario.node[4].nic.mac1609_4 	throughputMetricMac:mean 	110.41673509337
attr source  throughputSignalMac
attr title  "throughputMetricMac, mean"
scalar RSUScenario.node[4].veinsmobility 	startTime 	8
scalar RSUScenario.node[4].veinsmobility 	totalTime 	191.9
scalar RSUScenario.node[4].veinsmobility 	stopTime 	200
scalar RSUScenario.node[4].veinsmobility 	minSpeed 	4.4484911737197e-08
scalar RSUScenario.node[4].veinsmobility 	maxSpeed 	27.779831413899
scalar RSUScenario.node[4].veinsmobility 	totalDistance 	2678.4738921104
scalar RSUScenario.node[4].veinsmobility 	totalCO2Emission 	641.81799332788
scalar RSUScenario.rsu[0].nic.phy80211p 	busyTime 	0.10569051999995
scalar RSUScenario.rsu[0].nic.mac1609_4 	ReceivedUnicastPackets 	0
scalar RSUScenario.rsu[0].nic.mac1609_4 	ReceivedBroadcasts 	29480
scalar RSUScenario.rsu[0].nic.mac1609_4 	SentPackets 	1
scalar RSUScenario.rsu[0].nic.mac1609_4 	SNIRLostPackets 	4356
scalar RSUScenario.rsu[0].nic.mac1609_4 	RXTXLostPackets 	0
scalar RSUScenario.rsu[0].nic.mac1609_4 	TotalLostPackets 	4356
scalar RSUScenario.rsu[0].nic.mac1609_4 	DroppedPacketsInMac 	0
scalar RSUScenario.rsu[0].nic.mac1609_4 	TooLittleTime 	0
scalar RSUScenario.rsu[0].nic.mac1609_4 	TimesIntoBackoff 	2
scalar RSUScenario.rsu[0].nic.mac1609_4 	SlotsBackoff 	11
scalar RSUScenario.rsu[0].nic.mac1609_4 	NumInternalContention 	0
scalar RSUScenario.rsu[0].nic.mac1609_4 	totalBusyTime 	19.605295857793
scalar RSUScenario.metricsApplication.metrics 	packetsDeliveredToMetrics 	200
scalar RSUScenario.metricsApplication.metrics 	throughputMetric 	1.0050251256281
scalar RSUScenario.metricsApplication.metrics 	throughputMetric:last 	1.0050251256281
attr source  throughputSignal
attr title  "throughputMetric, last"
scalar RSUScenario.metricsApplication.metrics 	throughputMetric:count 	200
attr source  throughputSignal
attr title  "throughputMetric, count"
scalar RSUScenario.metricsApplication.metrics 	throughputMetric:sum 	204.87303094812
attr source  throughputSignal
attr title  "throughputMetric, sum"
scalar RSUScenario.metricsApplication.metrics 	throughputMetric:mean 	1.0243651547406
attr source  throughputSignal
attr title  "throughputMetric, mean"
scalar RSUScenario.metricsApplication.nic.phy80211p 	busyTime 	0.10569631999995
scalar RSUScenario.metricsApplication.nic.mac1609_4 	ReceivedUnicastPackets 	0
scalar RSUScenario.metricsApplication.nic.mac1609_4 	ReceivedBroadcasts 	29483
scalar RSUScenario.metricsApplication.nic.mac1609_4 	SentPackets 	1
scalar RSUScenario.metricsApplication.nic.mac1609_4 	SNIRLostPackets 	4353
scalar RSUScenario.metricsApplication.nic.mac1609_4 	RXTXLostPackets 	0
scalar RSUScenario.metricsApplication.nic.mac1609_4 	TotalLostPackets 	4353
scalar RSUScenario.metricsApplication.nic.mac1609_4 	DroppedPacketsInMac 	0
scalar RSUScenario.metricsApplication.nic.mac1609_4 	TooLittleTime 	0
scalar RSUScenario.metricsApplication.nic.mac1609_4 	TimesIntoBackoff 	2
scalar RSUScenario.metricsApplication.nic.mac1609_4 	SlotsBackoff 	8
scalar RSUScenario.metricsApplication.nic.mac1609_4 	NumInternalContention 	0
scalar RSUScenario.metricsApplication.nic.mac1609_4 	totalBusyTime 	19.605295857793
