version 2
run SingleCH_Safety_B_100Bytes_Q_5-0-20160509-12:23:46-4440
attr configname SingleCH_Safety_B_100Bytes_Q_5
attr datetime 20160509-12:23:46
attr experiment SingleCH_Safety_B_100Bytes_Q_5
attr inifile omnetpp.ini
attr iterationvars $0=1
attr iterationvars2 "$0=1, $repetition=0"
attr measurement $0=1
attr network RSUScenario
attr processid 4440
attr repetition 0
attr replication #0
attr resultdir results
attr runnumber 0
attr seedset 0

scalar RSUScenario.node[0].nic.phy80211p 	busyTime 	0.025829874937465
scalar RSUScenario.node[0].nic.mac1609_4 	throughputMetricMac 	111.94451651993
scalar RSUScenario.node[0].nic.mac1609_4 	throughputMbps 	0.11823133497208
scalar RSUScenario.node[0].nic.mac1609_4 	throughputControlMbps 	0
scalar RSUScenario.node[0].nic.mac1609_4 	ReceivedUnicastPackets 	0
scalar RSUScenario.node[0].nic.mac1609_4 	ReceivedBroadcasts 	22382
scalar RSUScenario.node[0].nic.mac1609_4 	SentPackets 	2000
scalar RSUScenario.node[0].nic.mac1609_4 	SNIRLostPackets 	666
scalar RSUScenario.node[0].nic.mac1609_4 	RXTXLostPackets 	0
scalar RSUScenario.node[0].nic.mac1609_4 	TotalLostPackets 	666
scalar RSUScenario.node[0].nic.mac1609_4 	DroppedPacketsInMac 	0
scalar RSUScenario.node[0].nic.mac1609_4 	TooLittleTime 	0
scalar RSUScenario.node[0].nic.mac1609_4 	TimesIntoBackoff 	2000
scalar RSUScenario.node[0].nic.mac1609_4 	SlotsBackoff 	3049
scalar RSUScenario.node[0].nic.mac1609_4 	NumInternalContention 	0
scalar RSUScenario.node[0].nic.mac1609_4 	totalBusyTime 	5.5422
scalar RSUScenario.node[0].nic.mac1609_4 	throughputMetricMac:last 	111.94451651993
attr source  throughputSignalMac
attr title  "throughputMetricMac, last"
scalar RSUScenario.node[0].nic.mac1609_4 	throughputMetricMac:count 	22382
attr source  throughputSignalMac
attr title  "throughputMetricMac, count"
scalar RSUScenario.node[0].nic.mac1609_4 	throughputMetricMac:sum 	2177104.4292808
attr source  throughputSignalMac
attr title  "throughputMetricMac, sum"
scalar RSUScenario.node[0].nic.mac1609_4 	throughputMetricMac:mean 	97.270325676024
attr source  throughputSignalMac
attr title  "throughputMetricMac, mean"
scalar RSUScenario.node[0].veinsmobility 	startTime 	0.1
scalar RSUScenario.node[0].veinsmobility 	totalTime 	199.8
scalar RSUScenario.node[0].veinsmobility 	stopTime 	200
scalar RSUScenario.node[0].veinsmobility 	minSpeed 	0
scalar RSUScenario.node[0].veinsmobility 	maxSpeed 	27.779501384608
scalar RSUScenario.node[0].veinsmobility 	totalDistance 	2894.8712277524
scalar RSUScenario.node[0].veinsmobility 	totalCO2Emission 	681.47074204162
scalar RSUScenario.node[5].nic.phy80211p 	busyTime 	0.033352643194957
scalar RSUScenario.node[5].nic.mac1609_4 	throughputMetricMac 	141.69505736
scalar RSUScenario.node[5].nic.mac1609_4 	throughputMbps 	0.14964790500682
scalar RSUScenario.node[5].nic.mac1609_4 	throughputControlMbps 	0
scalar RSUScenario.node[5].nic.mac1609_4 	ReceivedUnicastPackets 	0
scalar RSUScenario.node[5].nic.mac1609_4 	ReceivedBroadcasts 	28332
scalar RSUScenario.node[5].nic.mac1609_4 	SentPackets 	1904
scalar RSUScenario.node[5].nic.mac1609_4 	SNIRLostPackets 	0
scalar RSUScenario.node[5].nic.mac1609_4 	RXTXLostPackets 	336
scalar RSUScenario.node[5].nic.mac1609_4 	TotalLostPackets 	336
scalar RSUScenario.node[5].nic.mac1609_4 	DroppedPacketsInMac 	0
scalar RSUScenario.node[5].nic.mac1609_4 	TooLittleTime 	0
scalar RSUScenario.node[5].nic.mac1609_4 	TimesIntoBackoff 	3551
scalar RSUScenario.node[5].nic.mac1609_4 	SlotsBackoff 	5273
scalar RSUScenario.node[5].nic.mac1609_4 	NumInternalContention 	0
scalar RSUScenario.node[5].nic.mac1609_4 	totalBusyTime 	6.775448000012
scalar RSUScenario.node[5].nic.mac1609_4 	throughputMetricMac:last 	141.69505736
attr source  throughputSignalMac
attr title  "throughputMetricMac, last"
scalar RSUScenario.node[5].nic.mac1609_4 	throughputMetricMac:count 	28332
attr source  throughputSignalMac
attr title  "throughputMetricMac, count"
scalar RSUScenario.node[5].nic.mac1609_4 	throughputMetricMac:sum 	3212546.2108546
attr source  throughputSignalMac
attr title  "throughputMetricMac, sum"
scalar RSUScenario.node[5].nic.mac1609_4 	throughputMetricMac:mean 	113.38931988051
attr source  throughputSignalMac
attr title  "throughputMetricMac, mean"
scalar RSUScenario.node[5].veinsmobility 	startTime 	9.7
scalar RSUScenario.node[5].veinsmobility 	totalTime 	190.2
scalar RSUScenario.node[5].veinsmobility 	stopTime 	200
scalar RSUScenario.node[5].veinsmobility 	minSpeed 	3.4492463285946e-07
scalar RSUScenario.node[5].veinsmobility 	maxSpeed 	27.779228442793
scalar RSUScenario.node[5].veinsmobility 	totalDistance 	2630.4417924214
scalar RSUScenario.node[5].veinsmobility 	totalCO2Emission 	634.56039193211
scalar RSUScenario.node[14].nic.phy80211p 	busyTime 	0.039840437158474
scalar RSUScenario.node[14].nic.mac1609_4 	throughputMetricMac 	138.41924749162
scalar RSUScenario.node[14].nic.mac1609_4 	throughputMbps 	0.14618977006307
scalar RSUScenario.node[14].nic.mac1609_4 	throughputControlMbps 	0
scalar RSUScenario.node[14].nic.mac1609_4 	ReceivedUnicastPackets 	0
scalar RSUScenario.node[14].nic.mac1609_4 	ReceivedBroadcasts 	27677
scalar RSUScenario.node[14].nic.mac1609_4 	SentPackets 	1648
scalar RSUScenario.node[14].nic.mac1609_4 	SNIRLostPackets 	1613
scalar RSUScenario.node[14].nic.mac1609_4 	RXTXLostPackets 	0
scalar RSUScenario.node[14].nic.mac1609_4 	TotalLostPackets 	1613
scalar RSUScenario.node[14].nic.mac1609_4 	DroppedPacketsInMac 	0
scalar RSUScenario.node[14].nic.mac1609_4 	TooLittleTime 	0
scalar RSUScenario.node[14].nic.mac1609_4 	TimesIntoBackoff 	1648
scalar RSUScenario.node[14].nic.mac1609_4 	SlotsBackoff 	2491
scalar RSUScenario.node[14].nic.mac1609_4 	NumInternalContention 	0
scalar RSUScenario.node[14].nic.mac1609_4 	totalBusyTime 	6.744584
scalar RSUScenario.node[14].nic.mac1609_4 	throughputMetricMac:last 	138.41924749162
attr source  throughputSignalMac
attr title  "throughputMetricMac, last"
scalar RSUScenario.node[14].nic.mac1609_4 	throughputMetricMac:count 	27677
attr source  throughputSignalMac
attr title  "throughputMetricMac, count"
scalar RSUScenario.node[14].nic.mac1609_4 	throughputMetricMac:sum 	2798624.8379905
attr source  throughputSignalMac
attr title  "throughputMetricMac, sum"
scalar RSUScenario.node[14].nic.mac1609_4 	throughputMetricMac:mean 	101.11734790586
attr source  throughputSignalMac
attr title  "throughputMetricMac, mean"
scalar RSUScenario.node[14].veinsmobility 	startTime 	35.3
scalar RSUScenario.node[14].veinsmobility 	totalTime 	164.6
scalar RSUScenario.node[14].veinsmobility 	stopTime 	200
scalar RSUScenario.node[14].veinsmobility 	minSpeed 	2.8765002654245e-10
scalar RSUScenario.node[14].veinsmobility 	maxSpeed 	27.77995088157
scalar RSUScenario.node[14].veinsmobility 	totalDistance 	2163.763301336
scalar RSUScenario.node[14].veinsmobility 	totalCO2Emission 	560.68462810377
scalar RSUScenario.node[15].nic.phy80211p 	busyTime 	0.041365502645499
scalar RSUScenario.node[15].nic.mac1609_4 	throughputMetricMac 	116.55336377406
scalar RSUScenario.node[15].nic.mac1609_4 	throughputMbps 	0.12309379541683
scalar RSUScenario.node[15].nic.mac1609_4 	throughputControlMbps 	0
scalar RSUScenario.node[15].nic.mac1609_4 	ReceivedUnicastPackets 	0
scalar RSUScenario.node[15].nic.mac1609_4 	ReceivedBroadcasts 	23305
scalar RSUScenario.node[15].nic.mac1609_4 	SentPackets 	1324
scalar RSUScenario.node[15].nic.mac1609_4 	SNIRLostPackets 	1124
scalar RSUScenario.node[15].nic.mac1609_4 	RXTXLostPackets 	0
scalar RSUScenario.node[15].nic.mac1609_4 	TotalLostPackets 	1124
scalar RSUScenario.node[15].nic.mac1609_4 	DroppedPacketsInMac 	0
scalar RSUScenario.node[15].nic.mac1609_4 	TooLittleTime 	0
scalar RSUScenario.node[15].nic.mac1609_4 	TimesIntoBackoff 	1324
scalar RSUScenario.node[15].nic.mac1609_4 	SlotsBackoff 	1967
scalar RSUScenario.node[15].nic.mac1609_4 	NumInternalContention 	0
scalar RSUScenario.node[15].nic.mac1609_4 	totalBusyTime 	5.605468
scalar RSUScenario.node[15].nic.mac1609_4 	throughputMetricMac:last 	116.55336377406
attr source  throughputSignalMac
attr title  "throughputMetricMac, last"
scalar RSUScenario.node[15].nic.mac1609_4 	throughputMetricMac:count 	23305
attr source  throughputSignalMac
attr title  "throughputMetricMac, count"
scalar RSUScenario.node[15].nic.mac1609_4 	throughputMetricMac:sum 	1787071.4628881
attr source  throughputSignalMac
attr title  "throughputMetricMac, sum"
scalar RSUScenario.node[15].nic.mac1609_4 	throughputMetricMac:mean 	76.681890705346
attr source  throughputSignalMac
attr title  "throughputMetricMac, mean"
scalar RSUScenario.node[15].veinsmobility 	startTime 	67.7
scalar RSUScenario.node[15].veinsmobility 	totalTime 	132.2
scalar RSUScenario.node[15].veinsmobility 	stopTime 	200
scalar RSUScenario.node[15].veinsmobility 	minSpeed 	0.25430879177246
scalar RSUScenario.node[15].veinsmobility 	maxSpeed 	27.779609111873
scalar RSUScenario.node[15].veinsmobility 	totalDistance 	2101.6102821188
scalar RSUScenario.node[15].veinsmobility 	totalCO2Emission 	517.73516903683
scalar RSUScenario.node[16].nic.phy80211p 	busyTime 	0.040743993831915
scalar RSUScenario.node[16].nic.mac1609_4 	throughputMetricMac 	113.23755693891
scalar RSUScenario.node[16].nic.mac1609_4 	throughputMbps 	0.11959230339893
scalar RSUScenario.node[16].nic.mac1609_4 	throughputControlMbps 	0
scalar RSUScenario.node[16].nic.mac1609_4 	ReceivedUnicastPackets 	0
scalar RSUScenario.node[16].nic.mac1609_4 	ReceivedBroadcasts 	22642
scalar RSUScenario.node[16].nic.mac1609_4 	SentPackets 	1298
scalar RSUScenario.node[16].nic.mac1609_4 	SNIRLostPackets 	947
scalar RSUScenario.node[16].nic.mac1609_4 	RXTXLostPackets 	0
scalar RSUScenario.node[16].nic.mac1609_4 	TotalLostPackets 	947
scalar RSUScenario.node[16].nic.mac1609_4 	DroppedPacketsInMac 	0
scalar RSUScenario.node[16].nic.mac1609_4 	TooLittleTime 	0
scalar RSUScenario.node[16].nic.mac1609_4 	TimesIntoBackoff 	1298
scalar RSUScenario.node[16].nic.mac1609_4 	SlotsBackoff 	1978
scalar RSUScenario.node[16].nic.mac1609_4 	NumInternalContention 	0
scalar RSUScenario.node[16].nic.mac1609_4 	totalBusyTime 	5.44125
scalar RSUScenario.node[16].nic.mac1609_4 	throughputMetricMac:last 	113.23755693891
attr source  throughputSignalMac
attr title  "throughputMetricMac, last"
scalar RSUScenario.node[16].nic.mac1609_4 	throughputMetricMac:count 	22642
attr source  throughputSignalMac
attr title  "throughputMetricMac, count"
scalar RSUScenario.node[16].nic.mac1609_4 	throughputMetricMac:sum 	1675292.2014103
attr source  throughputSignalMac
attr title  "throughputMetricMac, sum"
scalar RSUScenario.node[16].nic.mac1609_4 	throughputMetricMac:mean 	73.990469102124
attr source  throughputSignalMac
attr title  "throughputMetricMac, mean"
scalar RSUScenario.node[16].veinsmobility 	startTime 	70.3
scalar RSUScenario.node[16].veinsmobility 	totalTime 	129.6
scalar RSUScenario.node[16].veinsmobility 	stopTime 	200
scalar RSUScenario.node[16].veinsmobility 	minSpeed 	0.25604540406028
scalar RSUScenario.node[16].veinsmobility 	maxSpeed 	27.779562298502
scalar RSUScenario.node[16].veinsmobility 	totalDistance 	2059.1423880304
scalar RSUScenario.node[16].veinsmobility 	totalCO2Emission 	512.60369693963
scalar RSUScenario.node[17].nic.phy80211p 	busyTime 	0.040024566929127
scalar RSUScenario.node[17].nic.mac1609_4 	throughputMetricMac 	110.25683163802
scalar RSUScenario.node[17].nic.mac1609_4 	throughputMbps 	0.11644465748121
scalar RSUScenario.node[17].nic.mac1609_4 	throughputControlMbps 	0
scalar RSUScenario.node[17].nic.mac1609_4 	ReceivedUnicastPackets 	0
scalar RSUScenario.node[17].nic.mac1609_4 	ReceivedBroadcasts 	22046
scalar RSUScenario.node[17].nic.mac1609_4 	SentPackets 	1271
scalar RSUScenario.node[17].nic.mac1609_4 	SNIRLostPackets 	644
scalar RSUScenario.node[17].nic.mac1609_4 	RXTXLostPackets 	0
scalar RSUScenario.node[17].nic.mac1609_4 	TotalLostPackets 	644
scalar RSUScenario.node[17].nic.mac1609_4 	DroppedPacketsInMac 	0
scalar RSUScenario.node[17].nic.mac1609_4 	TooLittleTime 	0
scalar RSUScenario.node[17].nic.mac1609_4 	TimesIntoBackoff 	1271
scalar RSUScenario.node[17].nic.mac1609_4 	SlotsBackoff 	1857
scalar RSUScenario.node[17].nic.mac1609_4 	NumInternalContention 	0
scalar RSUScenario.node[17].nic.mac1609_4 	totalBusyTime 	5.271431
scalar RSUScenario.node[17].nic.mac1609_4 	throughputMetricMac:last 	110.25683163802
attr source  throughputSignalMac
attr title  "throughputMetricMac, last"
scalar RSUScenario.node[17].nic.mac1609_4 	throughputMetricMac:count 	22046
attr source  throughputSignalMac
attr title  "throughputMetricMac, count"
scalar RSUScenario.node[17].nic.mac1609_4 	throughputMetricMac:sum 	1575213.7400039
attr source  throughputSignalMac
attr title  "throughputMetricMac, sum"
scalar RSUScenario.node[17].nic.mac1609_4 	throughputMetricMac:mean 	71.451226526529
attr source  throughputSignalMac
attr title  "throughputMetricMac, mean"
scalar RSUScenario.node[17].veinsmobility 	startTime 	73
scalar RSUScenario.node[17].veinsmobility 	totalTime 	126.9
scalar RSUScenario.node[17].veinsmobility 	stopTime 	200
scalar RSUScenario.node[17].veinsmobility 	minSpeed 	0.25361050302675
scalar RSUScenario.node[17].veinsmobility 	maxSpeed 	27.779782709777
scalar RSUScenario.node[17].veinsmobility 	totalDistance 	2008.1835107577
scalar RSUScenario.node[17].veinsmobility 	totalCO2Emission 	504.10705264016
scalar RSUScenario.node[18].nic.phy80211p 	busyTime 	0.039120707964593
scalar RSUScenario.node[18].nic.mac1609_4 	throughputMetricMac 	106.68096150973
scalar RSUScenario.node[18].nic.mac1609_4 	throughputMbps 	0.11266853862574
scalar RSUScenario.node[18].nic.mac1609_4 	throughputControlMbps 	0
scalar RSUScenario.node[18].nic.mac1609_4 	ReceivedUnicastPackets 	0
scalar RSUScenario.node[18].nic.mac1609_4 	ReceivedBroadcasts 	21331
scalar RSUScenario.node[18].nic.mac1609_4 	SentPackets 	1244
scalar RSUScenario.node[18].nic.mac1609_4 	SNIRLostPackets 	375
scalar RSUScenario.node[18].nic.mac1609_4 	RXTXLostPackets 	0
scalar RSUScenario.node[18].nic.mac1609_4 	TotalLostPackets 	375
scalar RSUScenario.node[18].nic.mac1609_4 	DroppedPacketsInMac 	0
scalar RSUScenario.node[18].nic.mac1609_4 	TooLittleTime 	0
scalar RSUScenario.node[18].nic.mac1609_4 	TimesIntoBackoff 	1245
scalar RSUScenario.node[18].nic.mac1609_4 	SlotsBackoff 	1899
scalar RSUScenario.node[18].nic.mac1609_4 	NumInternalContention 	0
scalar RSUScenario.node[18].nic.mac1609_4 	totalBusyTime 	5.088396
scalar RSUScenario.node[18].nic.mac1609_4 	throughputMetricMac:last 	106.68096150973
attr source  throughputSignalMac
attr title  "throughputMetricMac, last"
scalar RSUScenario.node[18].nic.mac1609_4 	throughputMetricMac:count 	21331
attr source  throughputSignalMac
attr title  "throughputMetricMac, count"
scalar RSUScenario.node[18].nic.mac1609_4 	throughputMetricMac:sum 	1465206.4101245
attr source  throughputSignalMac
attr title  "throughputMetricMac, sum"
scalar RSUScenario.node[18].nic.mac1609_4 	throughputMetricMac:mean 	68.689063340889
attr source  throughputSignalMac
attr title  "throughputMetricMac, mean"
scalar RSUScenario.node[18].veinsmobility 	startTime 	75.7
scalar RSUScenario.node[18].veinsmobility 	totalTime 	124.2
scalar RSUScenario.node[18].veinsmobility 	stopTime 	200
scalar RSUScenario.node[18].veinsmobility 	minSpeed 	0.25714591522701
scalar RSUScenario.node[18].veinsmobility 	maxSpeed 	27.779895664898
scalar RSUScenario.node[18].veinsmobility 	totalDistance 	1958.2216683699
scalar RSUScenario.node[18].veinsmobility 	totalCO2Emission 	496.23400441297
scalar RSUScenario.node[19].nic.phy80211p 	busyTime 	0.038126935086267
scalar RSUScenario.node[19].nic.mac1609_4 	throughputMetricMac 	101.99982240373
scalar RSUScenario.node[19].nic.mac1609_4 	throughputMbps 	0.10772525572982
scalar RSUScenario.node[19].nic.mac1609_4 	throughputControlMbps 	0
scalar RSUScenario.node[19].nic.mac1609_4 	ReceivedUnicastPackets 	0
scalar RSUScenario.node[19].nic.mac1609_4 	ReceivedBroadcasts 	20395
scalar RSUScenario.node[19].nic.mac1609_4 	SentPackets 	1218
scalar RSUScenario.node[19].nic.mac1609_4 	SNIRLostPackets 	317
scalar RSUScenario.node[19].nic.mac1609_4 	RXTXLostPackets 	0
scalar RSUScenario.node[19].nic.mac1609_4 	TotalLostPackets 	317
scalar RSUScenario.node[19].nic.mac1609_4 	DroppedPacketsInMac 	0
scalar RSUScenario.node[19].nic.mac1609_4 	TooLittleTime 	0
scalar RSUScenario.node[19].nic.mac1609_4 	TimesIntoBackoff 	1218
scalar RSUScenario.node[19].nic.mac1609_4 	SlotsBackoff 	1860
scalar RSUScenario.node[19].nic.mac1609_4 	NumInternalContention 	0
scalar RSUScenario.node[19].nic.mac1609_4 	totalBusyTime 	4.876466
scalar RSUScenario.node[19].nic.mac1609_4 	throughputMetricMac:last 	101.99982240373
attr source  throughputSignalMac
attr title  "throughputMetricMac, last"
scalar RSUScenario.node[19].nic.mac1609_4 	throughputMetricMac:count 	20395
attr source  throughputSignalMac
attr title  "throughputMetricMac, count"
scalar RSUScenario.node[19].nic.mac1609_4 	throughputMetricMac:sum 	1335597.6998609
attr source  throughputSignalMac
attr title  "throughputMetricMac, sum"
scalar RSUScenario.node[19].nic.mac1609_4 	throughputMetricMac:mean 	65.48652610252
attr source  throughputSignalMac
attr title  "throughputMetricMac, mean"
scalar RSUScenario.node[19].veinsmobility 	startTime 	78.3
scalar RSUScenario.node[19].veinsmobility 	totalTime 	121.6
scalar RSUScenario.node[19].veinsmobility 	stopTime 	200
scalar RSUScenario.node[19].veinsmobility 	minSpeed 	0.24815581214405
scalar RSUScenario.node[19].veinsmobility 	maxSpeed 	27.778576476357
scalar RSUScenario.node[19].veinsmobility 	totalDistance 	1909.0344228799
scalar RSUScenario.node[19].veinsmobility 	totalCO2Emission 	488.36381720563
scalar RSUScenario.node[20].nic.phy80211p 	busyTime 	0.03427872268906
scalar RSUScenario.node[20].nic.mac1609_4 	throughputMetricMac 	90.10192794157
scalar RSUScenario.node[20].nic.mac1609_4 	throughputMbps 	0.095168921086421
scalar RSUScenario.node[20].nic.mac1609_4 	throughputControlMbps 	0
scalar RSUScenario.node[20].nic.mac1609_4 	ReceivedUnicastPackets 	0
scalar RSUScenario.node[20].nic.mac1609_4 	ReceivedBroadcasts 	18016
scalar RSUScenario.node[20].nic.mac1609_4 	SentPackets 	1191
scalar RSUScenario.node[20].nic.mac1609_4 	SNIRLostPackets 	191
scalar RSUScenario.node[20].nic.mac1609_4 	RXTXLostPackets 	0
scalar RSUScenario.node[20].nic.mac1609_4 	TotalLostPackets 	191
scalar RSUScenario.node[20].nic.mac1609_4 	DroppedPacketsInMac 	0
scalar RSUScenario.node[20].nic.mac1609_4 	TooLittleTime 	0
scalar RSUScenario.node[20].nic.mac1609_4 	TimesIntoBackoff 	1517
scalar RSUScenario.node[20].nic.mac1609_4 	SlotsBackoff 	2357
scalar RSUScenario.node[20].nic.mac1609_4 	NumInternalContention 	0
scalar RSUScenario.node[20].nic.mac1609_4 	totalBusyTime 	4.315783243807
scalar RSUScenario.node[20].nic.mac1609_4 	throughputMetricMac:last 	90.10192794157
attr source  throughputSignalMac
attr title  "throughputMetricMac, last"
scalar RSUScenario.node[20].nic.mac1609_4 	throughputMetricMac:count 	18016
attr source  throughputSignalMac
attr title  "throughputMetricMac, count"
scalar RSUScenario.node[20].nic.mac1609_4 	throughputMetricMac:sum 	1044546.4352852
attr source  throughputSignalMac
attr title  "throughputMetricMac, sum"
scalar RSUScenario.node[20].nic.mac1609_4 	throughputMetricMac:mean 	57.978820786258
attr source  throughputSignalMac
attr title  "throughputMetricMac, mean"
scalar RSUScenario.node[20].veinsmobility 	startTime 	81
scalar RSUScenario.node[20].veinsmobility 	totalTime 	118.9
scalar RSUScenario.node[20].veinsmobility 	stopTime 	200
scalar RSUScenario.node[20].veinsmobility 	minSpeed 	0
scalar RSUScenario.node[20].veinsmobility 	maxSpeed 	27.776711394712
scalar RSUScenario.node[20].veinsmobility 	totalDistance 	1255.2286971853
scalar RSUScenario.node[20].veinsmobility 	totalCO2Emission 	425.48838566954
scalar RSUScenario.node[21].nic.phy80211p 	busyTime 	0.034138125537387
scalar RSUScenario.node[21].nic.mac1609_4 	throughputMetricMac 	87.435489277968
scalar RSUScenario.node[21].nic.mac1609_4 	throughputMbps 	0.092353161665364
scalar RSUScenario.node[21].nic.mac1609_4 	throughputControlMbps 	0
scalar RSUScenario.node[21].nic.mac1609_4 	ReceivedUnicastPackets 	0
scalar RSUScenario.node[21].nic.mac1609_4 	ReceivedBroadcasts 	17483
scalar RSUScenario.node[21].nic.mac1609_4 	SentPackets 	1164
scalar RSUScenario.node[21].nic.mac1609_4 	SNIRLostPackets 	238
scalar RSUScenario.node[21].nic.mac1609_4 	RXTXLostPackets 	1
scalar RSUScenario.node[21].nic.mac1609_4 	TotalLostPackets 	239
scalar RSUScenario.node[21].nic.mac1609_4 	DroppedPacketsInMac 	0
scalar RSUScenario.node[21].nic.mac1609_4 	TooLittleTime 	0
scalar RSUScenario.node[21].nic.mac1609_4 	TimesIntoBackoff 	1165
scalar RSUScenario.node[21].nic.mac1609_4 	SlotsBackoff 	1707
scalar RSUScenario.node[21].nic.mac1609_4 	NumInternalContention 	0
scalar RSUScenario.node[21].nic.mac1609_4 	totalBusyTime 	4.194051939615
scalar RSUScenario.node[21].nic.mac1609_4 	throughputMetricMac:last 	87.435489277968
attr source  throughputSignalMac
attr title  "throughputMetricMac, last"
scalar RSUScenario.node[21].nic.mac1609_4 	throughputMetricMac:count 	17483
attr source  throughputSignalMac
attr title  "throughputMetricMac, count"
scalar RSUScenario.node[21].nic.mac1609_4 	throughputMetricMac:sum 	983139.35641943
attr source  throughputSignalMac
attr title  "throughputMetricMac, sum"
scalar RSUScenario.node[21].nic.mac1609_4 	throughputMetricMac:mean 	56.234019128264
attr source  throughputSignalMac
attr title  "throughputMetricMac, mean"
scalar RSUScenario.node[21].veinsmobility 	startTime 	83.7
scalar RSUScenario.node[21].veinsmobility 	totalTime 	116.2
scalar RSUScenario.node[21].veinsmobility 	stopTime 	200
scalar RSUScenario.node[21].veinsmobility 	minSpeed 	1.9848891243935e-12
scalar RSUScenario.node[21].veinsmobility 	maxSpeed 	27.768514805271
scalar RSUScenario.node[21].veinsmobility 	totalDistance 	1139.2009738081
scalar RSUScenario.node[21].veinsmobility 	totalCO2Emission 	409.2136060384
scalar RSUScenario.node[22].nic.phy80211p 	busyTime 	0.033959683377293
scalar RSUScenario.node[22].nic.mac1609_4 	throughputMetricMac 	84.810640258303
scalar RSUScenario.node[22].nic.mac1609_4 	throughputMbps 	0.089581321292911
scalar RSUScenario.node[22].nic.mac1609_4 	throughputControlMbps 	0
scalar RSUScenario.node[22].nic.mac1609_4 	ReceivedUnicastPackets 	0
scalar RSUScenario.node[22].nic.mac1609_4 	ReceivedBroadcasts 	16958
scalar RSUScenario.node[22].nic.mac1609_4 	SentPackets 	1138
scalar RSUScenario.node[22].nic.mac1609_4 	SNIRLostPackets 	276
scalar RSUScenario.node[22].nic.mac1609_4 	RXTXLostPackets 	0
scalar RSUScenario.node[22].nic.mac1609_4 	TotalLostPackets 	276
scalar RSUScenario.node[22].nic.mac1609_4 	DroppedPacketsInMac 	0
scalar RSUScenario.node[22].nic.mac1609_4 	TooLittleTime 	0
scalar RSUScenario.node[22].nic.mac1609_4 	TimesIntoBackoff 	2073
scalar RSUScenario.node[22].nic.mac1609_4 	SlotsBackoff 	3036
scalar RSUScenario.node[22].nic.mac1609_4 	NumInternalContention 	0
scalar RSUScenario.node[22].nic.mac1609_4 	totalBusyTime 	4.071570193716
scalar RSUScenario.node[22].nic.mac1609_4 	throughputMetricMac:last 	84.810640258303
attr source  throughputSignalMac
attr title  "throughputMetricMac, last"
scalar RSUScenario.node[22].nic.mac1609_4 	throughputMetricMac:count 	16958
attr source  throughputSignalMac
attr title  "throughputMetricMac, count"
scalar RSUScenario.node[22].nic.mac1609_4 	throughputMetricMac:sum 	927250.79549834
attr source  throughputSignalMac
attr title  "throughputMetricMac, sum"
scalar RSUScenario.node[22].nic.mac1609_4 	throughputMetricMac:mean 	54.679254363624
attr source  throughputSignalMac
attr title  "throughputMetricMac, mean"
scalar RSUScenario.node[22].veinsmobility 	startTime 	86.3
scalar RSUScenario.node[22].veinsmobility 	totalTime 	113.6
scalar RSUScenario.node[22].veinsmobility 	stopTime 	200
scalar RSUScenario.node[22].veinsmobility 	minSpeed 	6.2119809259411e-11
scalar RSUScenario.node[22].veinsmobility 	maxSpeed 	22.219553360699
scalar RSUScenario.node[22].veinsmobility 	totalDistance 	1056.9988266997
scalar RSUScenario.node[22].veinsmobility 	totalCO2Emission 	354.92394932215
scalar RSUScenario.node[23].nic.phy80211p 	busyTime 	0.033941890189003
scalar RSUScenario.node[23].nic.mac1609_4 	throughputMetricMac 	82.640111933395
scalar RSUScenario.node[23].nic.mac1609_4 	throughputMbps 	0.087288123109151
scalar RSUScenario.node[23].nic.mac1609_4 	throughputControlMbps 	0
scalar RSUScenario.node[23].nic.mac1609_4 	ReceivedUnicastPackets 	0
scalar RSUScenario.node[23].nic.mac1609_4 	ReceivedBroadcasts 	16524
scalar RSUScenario.node[23].nic.mac1609_4 	SentPackets 	1112
scalar RSUScenario.node[23].nic.mac1609_4 	SNIRLostPackets 	307
scalar RSUScenario.node[23].nic.mac1609_4 	RXTXLostPackets 	0
scalar RSUScenario.node[23].nic.mac1609_4 	TotalLostPackets 	307
scalar RSUScenario.node[23].nic.mac1609_4 	DroppedPacketsInMac 	0
scalar RSUScenario.node[23].nic.mac1609_4 	TooLittleTime 	0
scalar RSUScenario.node[23].nic.mac1609_4 	TimesIntoBackoff 	1504
scalar RSUScenario.node[23].nic.mac1609_4 	SlotsBackoff 	2266
scalar RSUScenario.node[23].nic.mac1609_4 	NumInternalContention 	0
scalar RSUScenario.node[23].nic.mac1609_4 	totalBusyTime 	3.972732291707
scalar RSUScenario.node[23].nic.mac1609_4 	throughputMetricMac:last 	82.640111933395
attr source  throughputSignalMac
attr title  "throughputMetricMac, last"
scalar RSUScenario.node[23].nic.mac1609_4 	throughputMetricMac:count 	16524
attr source  throughputSignalMac
attr title  "throughputMetricMac, count"
scalar RSUScenario.node[23].nic.mac1609_4 	throughputMetricMac:sum 	880240.72307204
attr source  throughputSignalMac
attr title  "throughputMetricMac, sum"
scalar RSUScenario.node[23].nic.mac1609_4 	throughputMetricMac:mean 	53.270438336483
attr source  throughputSignalMac
attr title  "throughputMetricMac, mean"
scalar RSUScenario.node[23].veinsmobility 	startTime 	88.9
scalar RSUScenario.node[23].veinsmobility 	totalTime 	111
scalar RSUScenario.node[23].veinsmobility 	stopTime 	200
scalar RSUScenario.node[23].veinsmobility 	minSpeed 	1.108414686105e-09
scalar RSUScenario.node[23].veinsmobility 	maxSpeed 	22.217862700217
scalar RSUScenario.node[23].veinsmobility 	totalDistance 	994.46200483466
scalar RSUScenario.node[23].veinsmobility 	totalCO2Emission 	315.57799641334
scalar RSUScenario.node[6].nic.phy80211p 	busyTime 	0.035082450719236
scalar RSUScenario.node[6].nic.mac1609_4 	throughputMetricMac 	143.25044229741
scalar RSUScenario.node[6].nic.mac1609_4 	throughputMbps 	0.15129263205509
scalar RSUScenario.node[6].nic.mac1609_4 	throughputControlMbps 	0
scalar RSUScenario.node[6].nic.mac1609_4 	ReceivedUnicastPackets 	0
scalar RSUScenario.node[6].nic.mac1609_4 	ReceivedBroadcasts 	28643
scalar RSUScenario.node[6].nic.mac1609_4 	SentPackets 	1878
scalar RSUScenario.node[6].nic.mac1609_4 	SNIRLostPackets 	751
scalar RSUScenario.node[6].nic.mac1609_4 	RXTXLostPackets 	0
scalar RSUScenario.node[6].nic.mac1609_4 	TotalLostPackets 	751
scalar RSUScenario.node[6].nic.mac1609_4 	DroppedPacketsInMac 	0
scalar RSUScenario.node[6].nic.mac1609_4 	TooLittleTime 	0
scalar RSUScenario.node[6].nic.mac1609_4 	TimesIntoBackoff 	1878
scalar RSUScenario.node[6].nic.mac1609_4 	SlotsBackoff 	2749
scalar RSUScenario.node[6].nic.mac1609_4 	NumInternalContention 	0
scalar RSUScenario.node[6].nic.mac1609_4 	totalBusyTime 	6.95022997782
scalar RSUScenario.node[6].nic.mac1609_4 	throughputMetricMac:last 	143.25044229741
attr source  throughputSignalMac
attr title  "throughputMetricMac, last"
scalar RSUScenario.node[6].nic.mac1609_4 	throughputMetricMac:count 	28643
attr source  throughputSignalMac
attr title  "throughputMetricMac, count"
scalar RSUScenario.node[6].nic.mac1609_4 	throughputMetricMac:sum 	3276002.3734851
attr source  throughputSignalMac
attr title  "throughputMetricMac, sum"
scalar RSUScenario.node[6].nic.mac1609_4 	throughputMetricMac:mean 	114.37357726094
attr source  throughputSignalMac
attr title  "throughputMetricMac, mean"
scalar RSUScenario.node[6].veinsmobility 	startTime 	12.3
scalar RSUScenario.node[6].veinsmobility 	totalTime 	187.6
scalar RSUScenario.node[6].veinsmobility 	stopTime 	200
scalar RSUScenario.node[6].veinsmobility 	minSpeed 	2.0538262791456e-06
scalar RSUScenario.node[6].veinsmobility 	maxSpeed 	27.77997836269
scalar RSUScenario.node[6].veinsmobility 	totalDistance 	2586.6935720308
scalar RSUScenario.node[6].veinsmobility 	totalCO2Emission 	625.2646278057
scalar RSUScenario.node[24].nic.phy80211p 	busyTime 	0.03406363133639
scalar RSUScenario.node[24].nic.mac1609_4 	throughputMetricMac 	80.834672495969
scalar RSUScenario.node[24].nic.mac1609_4 	throughputMbps 	0.085381579063219
scalar RSUScenario.node[24].nic.mac1609_4 	throughputControlMbps 	0
scalar RSUScenario.node[24].nic.mac1609_4 	ReceivedUnicastPackets 	0
scalar RSUScenario.node[24].nic.mac1609_4 	ReceivedBroadcasts 	16163
scalar RSUScenario.node[24].nic.mac1609_4 	SentPackets 	1086
scalar RSUScenario.node[24].nic.mac1609_4 	SNIRLostPackets 	333
scalar RSUScenario.node[24].nic.mac1609_4 	RXTXLostPackets 	0
scalar RSUScenario.node[24].nic.mac1609_4 	TotalLostPackets 	333
scalar RSUScenario.node[24].nic.mac1609_4 	DroppedPacketsInMac 	0
scalar RSUScenario.node[24].nic.mac1609_4 	TooLittleTime 	0
scalar RSUScenario.node[24].nic.mac1609_4 	TimesIntoBackoff 	1089
scalar RSUScenario.node[24].nic.mac1609_4 	SlotsBackoff 	1618
scalar RSUScenario.node[24].nic.mac1609_4 	NumInternalContention 	0
scalar RSUScenario.node[24].nic.mac1609_4 	totalBusyTime 	3.886848368682
scalar RSUScenario.node[24].nic.mac1609_4 	throughputMetricMac:last 	80.834672495969
attr source  throughputSignalMac
attr title  "throughputMetricMac, last"
scalar RSUScenario.node[24].nic.mac1609_4 	throughputMetricMac:count 	16163
attr source  throughputSignalMac
attr title  "throughputMetricMac, count"
scalar RSUScenario.node[24].nic.mac1609_4 	throughputMetricMac:sum 	841668.18190724
attr source  throughputSignalMac
attr title  "throughputMetricMac, sum"
scalar RSUScenario.node[24].nic.mac1609_4 	throughputMetricMac:mean 	52.073759939815
attr source  throughputSignalMac
attr title  "throughputMetricMac, mean"
scalar RSUScenario.node[24].veinsmobility 	startTime 	91.5
scalar RSUScenario.node[24].veinsmobility 	totalTime 	108.4
scalar RSUScenario.node[24].veinsmobility 	stopTime 	200
scalar RSUScenario.node[24].veinsmobility 	minSpeed 	1.2804826916339e-08
scalar RSUScenario.node[24].veinsmobility 	maxSpeed 	22.21715550924
scalar RSUScenario.node[24].veinsmobility 	totalDistance 	955.9901391291
scalar RSUScenario.node[24].veinsmobility 	totalCO2Emission 	286.30962277288
scalar RSUScenario.node[25].nic.phy80211p 	busyTime 	0.034231539187898
scalar RSUScenario.node[25].nic.mac1609_4 	throughputMetricMac 	79.179269600902
scalar RSUScenario.node[25].nic.mac1609_4 	throughputMbps 	0.083633473606026
scalar RSUScenario.node[25].nic.mac1609_4 	throughputControlMbps 	0
scalar RSUScenario.node[25].nic.mac1609_4 	ReceivedUnicastPackets 	0
scalar RSUScenario.node[25].nic.mac1609_4 	ReceivedBroadcasts 	15832
scalar RSUScenario.node[25].nic.mac1609_4 	SentPackets 	1060
scalar RSUScenario.node[25].nic.mac1609_4 	SNIRLostPackets 	348
scalar RSUScenario.node[25].nic.mac1609_4 	RXTXLostPackets 	0
scalar RSUScenario.node[25].nic.mac1609_4 	TotalLostPackets 	348
scalar RSUScenario.node[25].nic.mac1609_4 	DroppedPacketsInMac 	0
scalar RSUScenario.node[25].nic.mac1609_4 	TooLittleTime 	0
scalar RSUScenario.node[25].nic.mac1609_4 	TimesIntoBackoff 	1061
scalar RSUScenario.node[25].nic.mac1609_4 	SlotsBackoff 	1603
scalar RSUScenario.node[25].nic.mac1609_4 	NumInternalContention 	0
scalar RSUScenario.node[25].nic.mac1609_4 	totalBusyTime 	3.809188029446
scalar RSUScenario.node[25].nic.mac1609_4 	throughputMetricMac:last 	79.179269600902
attr source  throughputSignalMac
attr title  "throughputMetricMac, last"
scalar RSUScenario.node[25].nic.mac1609_4 	throughputMetricMac:count 	15832
attr source  throughputSignalMac
attr title  "throughputMetricMac, count"
scalar RSUScenario.node[25].nic.mac1609_4 	throughputMetricMac:sum 	806088.15005767
attr source  throughputSignalMac
attr title  "throughputMetricMac, sum"
scalar RSUScenario.node[25].nic.mac1609_4 	throughputMetricMac:mean 	50.915118118852
attr source  throughputSignalMac
attr title  "throughputMetricMac, mean"
scalar RSUScenario.node[25].veinsmobility 	startTime 	94.1
scalar RSUScenario.node[25].veinsmobility 	totalTime 	105.8
scalar RSUScenario.node[25].veinsmobility 	stopTime 	200
scalar RSUScenario.node[25].veinsmobility 	minSpeed 	1.1044479688379e-07
scalar RSUScenario.node[25].veinsmobility 	maxSpeed 	22.217111391746
scalar RSUScenario.node[25].veinsmobility 	totalDistance 	937.19494794276
scalar RSUScenario.node[25].veinsmobility 	totalCO2Emission 	273.95708061037
scalar RSUScenario.node[26].nic.phy80211p 	busyTime 	0.034127783155842
scalar RSUScenario.node[26].nic.mac1609_4 	throughputMetricMac 	76.903715782161
scalar RSUScenario.node[26].nic.mac1609_4 	throughputMbps 	0.081231609046069
scalar RSUScenario.node[26].nic.mac1609_4 	throughputControlMbps 	0
scalar RSUScenario.node[26].nic.mac1609_4 	ReceivedUnicastPackets 	0
scalar RSUScenario.node[26].nic.mac1609_4 	ReceivedBroadcasts 	15377
scalar RSUScenario.node[26].nic.mac1609_4 	SentPackets 	1034
scalar RSUScenario.node[26].nic.mac1609_4 	SNIRLostPackets 	358
scalar RSUScenario.node[26].nic.mac1609_4 	RXTXLostPackets 	1
scalar RSUScenario.node[26].nic.mac1609_4 	TotalLostPackets 	359
scalar RSUScenario.node[26].nic.mac1609_4 	DroppedPacketsInMac 	0
scalar RSUScenario.node[26].nic.mac1609_4 	TooLittleTime 	0
scalar RSUScenario.node[26].nic.mac1609_4 	TimesIntoBackoff 	1034
scalar RSUScenario.node[26].nic.mac1609_4 	SlotsBackoff 	1513
scalar RSUScenario.node[26].nic.mac1609_4 	NumInternalContention 	0
scalar RSUScenario.node[26].nic.mac1609_4 	totalBusyTime 	3.703658045888
scalar RSUScenario.node[26].nic.mac1609_4 	throughputMetricMac:last 	76.903715782161
attr source  throughputSignalMac
attr title  "throughputMetricMac, last"
scalar RSUScenario.node[26].nic.mac1609_4 	throughputMetricMac:count 	15377
attr source  throughputSignalMac
attr title  "throughputMetricMac, count"
scalar RSUScenario.node[26].nic.mac1609_4 	throughputMetricMac:sum 	756971.32671328
attr source  throughputSignalMac
attr title  "throughputMetricMac, sum"
scalar RSUScenario.node[26].nic.mac1609_4 	throughputMetricMac:mean 	49.227503850769
attr source  throughputSignalMac
attr title  "throughputMetricMac, mean"
scalar RSUScenario.node[26].veinsmobility 	startTime 	96.7
scalar RSUScenario.node[26].veinsmobility 	totalTime 	103.2
scalar RSUScenario.node[26].veinsmobility 	stopTime 	200
scalar RSUScenario.node[26].veinsmobility 	minSpeed 	7.5987295400894e-07
scalar RSUScenario.node[26].veinsmobility 	maxSpeed 	22.211180316813
scalar RSUScenario.node[26].veinsmobility 	totalDistance 	917.38441194701
scalar RSUScenario.node[26].veinsmobility 	totalCO2Emission 	265.39632630228
scalar RSUScenario.node[27].nic.phy80211p 	busyTime 	0.033995387673942
scalar RSUScenario.node[27].nic.mac1609_4 	throughputMetricMac 	74.383102316785
scalar RSUScenario.node[27].nic.mac1609_4 	throughputMbps 	0.078569841226624
scalar RSUScenario.node[27].nic.mac1609_4 	throughputControlMbps 	0
scalar RSUScenario.node[27].nic.mac1609_4 	ReceivedUnicastPackets 	0
scalar RSUScenario.node[27].nic.mac1609_4 	ReceivedBroadcasts 	14873
scalar RSUScenario.node[27].nic.mac1609_4 	SentPackets 	1007
scalar RSUScenario.node[27].nic.mac1609_4 	SNIRLostPackets 	391
scalar RSUScenario.node[27].nic.mac1609_4 	RXTXLostPackets 	0
scalar RSUScenario.node[27].nic.mac1609_4 	TotalLostPackets 	391
scalar RSUScenario.node[27].nic.mac1609_4 	DroppedPacketsInMac 	0
scalar RSUScenario.node[27].nic.mac1609_4 	TooLittleTime 	0
scalar RSUScenario.node[27].nic.mac1609_4 	TimesIntoBackoff 	1009
scalar RSUScenario.node[27].nic.mac1609_4 	SlotsBackoff 	1541
scalar RSUScenario.node[27].nic.mac1609_4 	NumInternalContention 	0
scalar RSUScenario.node[27].nic.mac1609_4 	totalBusyTime 	3.591631045889
scalar RSUScenario.node[27].nic.mac1609_4 	throughputMetricMac:last 	74.383102316785
attr source  throughputSignalMac
attr title  "throughputMetricMac, last"
scalar RSUScenario.node[27].nic.mac1609_4 	throughputMetricMac:count 	14873
attr source  throughputSignalMac
attr title  "throughputMetricMac, count"
scalar RSUScenario.node[27].nic.mac1609_4 	throughputMetricMac:sum 	703603.42716693
attr source  throughputSignalMac
attr title  "throughputMetricMac, sum"
scalar RSUScenario.node[27].nic.mac1609_4 	throughputMetricMac:mean 	47.307431396956
attr source  throughputSignalMac
attr title  "throughputMetricMac, mean"
scalar RSUScenario.node[27].veinsmobility 	startTime 	99.4
scalar RSUScenario.node[27].veinsmobility 	totalTime 	100.5
scalar RSUScenario.node[27].veinsmobility 	stopTime 	200
scalar RSUScenario.node[27].veinsmobility 	minSpeed 	3.848826228958e-06
scalar RSUScenario.node[27].veinsmobility 	maxSpeed 	22.217552027937
scalar RSUScenario.node[27].veinsmobility 	totalDistance 	889.72449387709
scalar RSUScenario.node[27].veinsmobility 	totalCO2Emission 	263.49873773755
scalar RSUScenario.node[28].nic.phy80211p 	busyTime 	0.034036036772203
scalar RSUScenario.node[28].nic.mac1609_4 	throughputMetricMac 	72.572661672857
scalar RSUScenario.node[28].nic.mac1609_4 	throughputMbps 	0.076658015906623
scalar RSUScenario.node[28].nic.mac1609_4 	throughputControlMbps 	0
scalar RSUScenario.node[28].nic.mac1609_4 	ReceivedUnicastPackets 	0
scalar RSUScenario.node[28].nic.mac1609_4 	ReceivedBroadcasts 	14511
scalar RSUScenario.node[28].nic.mac1609_4 	SentPackets 	980
scalar RSUScenario.node[28].nic.mac1609_4 	SNIRLostPackets 	361
scalar RSUScenario.node[28].nic.mac1609_4 	RXTXLostPackets 	0
scalar RSUScenario.node[28].nic.mac1609_4 	TotalLostPackets 	361
scalar RSUScenario.node[28].nic.mac1609_4 	DroppedPacketsInMac 	0
scalar RSUScenario.node[28].nic.mac1609_4 	TooLittleTime 	0
scalar RSUScenario.node[28].nic.mac1609_4 	TimesIntoBackoff 	981
scalar RSUScenario.node[28].nic.mac1609_4 	SlotsBackoff 	1460
scalar RSUScenario.node[28].nic.mac1609_4 	NumInternalContention 	0
scalar RSUScenario.node[28].nic.mac1609_4 	totalBusyTime 	3.505140045479
scalar RSUScenario.node[28].nic.mac1609_4 	throughputMetricMac:last 	72.572661672857
attr source  throughputSignalMac
attr title  "throughputMetricMac, last"
scalar RSUScenario.node[28].nic.mac1609_4 	throughputMetricMac:count 	14511
attr source  throughputSignalMac
attr title  "throughputMetricMac, count"
scalar RSUScenario.node[28].nic.mac1609_4 	throughputMetricMac:sum 	663382.71759602
attr source  throughputSignalMac
attr title  "throughputMetricMac, sum"
scalar RSUScenario.node[28].nic.mac1609_4 	throughputMetricMac:mean 	45.715851257392
attr source  throughputSignalMac
attr title  "throughputMetricMac, mean"
scalar RSUScenario.node[28].veinsmobility 	startTime 	102.1
scalar RSUScenario.node[28].veinsmobility 	totalTime 	97.8
scalar RSUScenario.node[28].veinsmobility 	stopTime 	200
scalar RSUScenario.node[28].veinsmobility 	minSpeed 	1.5956486747517e-05
scalar RSUScenario.node[28].veinsmobility 	maxSpeed 	22.214814219016
scalar RSUScenario.node[28].veinsmobility 	totalDistance 	849.58550611208
scalar RSUScenario.node[28].veinsmobility 	totalCO2Emission 	257.96316011762
scalar RSUScenario.node[29].nic.phy80211p 	busyTime 	0.033901525423717
scalar RSUScenario.node[29].nic.mac1609_4 	throughputMetricMac 	69.481909435797
scalar RSUScenario.node[29].nic.mac1609_4 	throughputMbps 	0.073379618000019
scalar RSUScenario.node[29].nic.mac1609_4 	throughputControlMbps 	0
scalar RSUScenario.node[29].nic.mac1609_4 	ReceivedUnicastPackets 	0
scalar RSUScenario.node[29].nic.mac1609_4 	ReceivedBroadcasts 	13893
scalar RSUScenario.node[29].nic.mac1609_4 	SentPackets 	945
scalar RSUScenario.node[29].nic.mac1609_4 	SNIRLostPackets 	393
scalar RSUScenario.node[29].nic.mac1609_4 	RXTXLostPackets 	0
scalar RSUScenario.node[29].nic.mac1609_4 	TotalLostPackets 	393
scalar RSUScenario.node[29].nic.mac1609_4 	DroppedPacketsInMac 	0
scalar RSUScenario.node[29].nic.mac1609_4 	TooLittleTime 	0
scalar RSUScenario.node[29].nic.mac1609_4 	TimesIntoBackoff 	945
scalar RSUScenario.node[29].nic.mac1609_4 	SlotsBackoff 	1418
scalar RSUScenario.node[29].nic.mac1609_4 	NumInternalContention 	0
scalar RSUScenario.node[29].nic.mac1609_4 	totalBusyTime 	3.363913
scalar RSUScenario.node[29].nic.mac1609_4 	throughputMetricMac:last 	69.481909435797
attr source  throughputSignalMac
attr title  "throughputMetricMac, last"
scalar RSUScenario.node[29].nic.mac1609_4 	throughputMetricMac:count 	13893
attr source  throughputSignalMac
attr title  "throughputMetricMac, count"
scalar RSUScenario.node[29].nic.mac1609_4 	throughputMetricMac:sum 	601583.30674943
attr source  throughputSignalMac
attr title  "throughputMetricMac, sum"
scalar RSUScenario.node[29].nic.mac1609_4 	throughputMetricMac:mean 	43.301180936402
attr source  throughputSignalMac
attr title  "throughputMetricMac, mean"
scalar RSUScenario.node[29].veinsmobility 	startTime 	105.6
scalar RSUScenario.node[29].veinsmobility 	totalTime 	94.3
scalar RSUScenario.node[29].veinsmobility 	stopTime 	200
scalar RSUScenario.node[29].veinsmobility 	minSpeed 	4.9981349551833e-05
scalar RSUScenario.node[29].veinsmobility 	maxSpeed 	22.219165075347
scalar RSUScenario.node[29].veinsmobility 	totalDistance 	793.86150240069
scalar RSUScenario.node[29].veinsmobility 	totalCO2Emission 	250.79574177298
scalar RSUScenario.node[30].nic.phy80211p 	busyTime 	0.031007303370784
scalar RSUScenario.node[30].nic.mac1609_4 	throughputMetricMac 	48.936467777634
scalar RSUScenario.node[30].nic.mac1609_4 	throughputMbps 	0.051682511285799
scalar RSUScenario.node[30].nic.mac1609_4 	throughputControlMbps 	0
scalar RSUScenario.node[30].nic.mac1609_4 	ReceivedUnicastPackets 	0
scalar RSUScenario.node[30].nic.mac1609_4 	ReceivedBroadcasts 	9785
scalar RSUScenario.node[30].nic.mac1609_4 	SentPackets 	713
scalar RSUScenario.node[30].nic.mac1609_4 	SNIRLostPackets 	70
scalar RSUScenario.node[30].nic.mac1609_4 	RXTXLostPackets 	0
scalar RSUScenario.node[30].nic.mac1609_4 	TotalLostPackets 	70
scalar RSUScenario.node[30].nic.mac1609_4 	DroppedPacketsInMac 	0
scalar RSUScenario.node[30].nic.mac1609_4 	TooLittleTime 	0
scalar RSUScenario.node[30].nic.mac1609_4 	TimesIntoBackoff 	713
scalar RSUScenario.node[30].nic.mac1609_4 	SlotsBackoff 	1050
scalar RSUScenario.node[30].nic.mac1609_4 	NumInternalContention 	0
scalar RSUScenario.node[30].nic.mac1609_4 	totalBusyTime 	2.359225
scalar RSUScenario.node[30].nic.mac1609_4 	throughputMetricMac:last 	48.936467777634
attr source  throughputSignalMac
attr title  "throughputMetricMac, last"
scalar RSUScenario.node[30].nic.mac1609_4 	throughputMetricMac:count 	9785
attr source  throughputSignalMac
attr title  "throughputMetricMac, count"
scalar RSUScenario.node[30].nic.mac1609_4 	throughputMetricMac:sum 	276705.65260862
attr source  throughputSignalMac
attr title  "throughputMetricMac, sum"
scalar RSUScenario.node[30].nic.mac1609_4 	throughputMetricMac:mean 	28.278554175638
attr source  throughputSignalMac
attr title  "throughputMetricMac, mean"
scalar RSUScenario.node[30].veinsmobility 	startTime 	128.8
scalar RSUScenario.node[30].veinsmobility 	totalTime 	71.1
scalar RSUScenario.node[30].veinsmobility 	stopTime 	200
scalar RSUScenario.node[30].veinsmobility 	minSpeed 	0
scalar RSUScenario.node[30].veinsmobility 	maxSpeed 	16.663771004416
scalar RSUScenario.node[30].veinsmobility 	totalDistance 	343.73215850348
scalar RSUScenario.node[30].veinsmobility 	totalCO2Emission 	173.62204238487
scalar RSUScenario.node[31].nic.phy80211p 	busyTime 	0.030842470588234
scalar RSUScenario.node[31].nic.mac1609_4 	throughputMetricMac 	46.620925186765
scalar RSUScenario.node[31].nic.mac1609_4 	throughputMbps 	0.049237298309846
scalar RSUScenario.node[31].nic.mac1609_4 	throughputControlMbps 	0
scalar RSUScenario.node[31].nic.mac1609_4 	ReceivedUnicastPackets 	0
scalar RSUScenario.node[31].nic.mac1609_4 	ReceivedBroadcasts 	9322
scalar RSUScenario.node[31].nic.mac1609_4 	SentPackets 	681
scalar RSUScenario.node[31].nic.mac1609_4 	SNIRLostPackets 	40
scalar RSUScenario.node[31].nic.mac1609_4 	RXTXLostPackets 	0
scalar RSUScenario.node[31].nic.mac1609_4 	TotalLostPackets 	40
scalar RSUScenario.node[31].nic.mac1609_4 	DroppedPacketsInMac 	0
scalar RSUScenario.node[31].nic.mac1609_4 	TooLittleTime 	0
scalar RSUScenario.node[31].nic.mac1609_4 	TimesIntoBackoff 	682
scalar RSUScenario.node[31].nic.mac1609_4 	SlotsBackoff 	980
scalar RSUScenario.node[31].nic.mac1609_4 	NumInternalContention 	0
scalar RSUScenario.node[31].nic.mac1609_4 	totalBusyTime 	2.244953
scalar RSUScenario.node[31].nic.mac1609_4 	throughputMetricMac:last 	46.620925186765
attr source  throughputSignalMac
attr title  "throughputMetricMac, last"
scalar RSUScenario.node[31].nic.mac1609_4 	throughputMetricMac:count 	9322
attr source  throughputSignalMac
attr title  "throughputMetricMac, count"
scalar RSUScenario.node[31].nic.mac1609_4 	throughputMetricMac:sum 	249997.84839035
attr source  throughputSignalMac
attr title  "throughputMetricMac, sum"
scalar RSUScenario.node[31].nic.mac1609_4 	throughputMetricMac:mean 	26.818048529323
attr source  throughputSignalMac
attr title  "throughputMetricMac, mean"
scalar RSUScenario.node[31].veinsmobility 	startTime 	132
scalar RSUScenario.node[31].veinsmobility 	totalTime 	67.9
scalar RSUScenario.node[31].veinsmobility 	stopTime 	200
scalar RSUScenario.node[31].veinsmobility 	minSpeed 	5.1295413412708e-13
scalar RSUScenario.node[31].veinsmobility 	maxSpeed 	16.273093481607
scalar RSUScenario.node[31].veinsmobility 	totalDistance 	288.51355689825
scalar RSUScenario.node[31].veinsmobility 	totalCO2Emission 	161.77149078421
scalar RSUScenario.node[32].nic.phy80211p 	busyTime 	0.030799631901841
scalar RSUScenario.node[32].nic.mac1609_4 	throughputMetricMac 	44.780493918778
scalar RSUScenario.node[32].nic.mac1609_4 	throughputMbps 	0.047293802890854
scalar RSUScenario.node[32].nic.mac1609_4 	throughputControlMbps 	0
scalar RSUScenario.node[32].nic.mac1609_4 	ReceivedUnicastPackets 	0
scalar RSUScenario.node[32].nic.mac1609_4 	ReceivedBroadcasts 	8954
scalar RSUScenario.node[32].nic.mac1609_4 	SentPackets 	653
scalar RSUScenario.node[32].nic.mac1609_4 	SNIRLostPackets 	10
scalar RSUScenario.node[32].nic.mac1609_4 	RXTXLostPackets 	0
scalar RSUScenario.node[32].nic.mac1609_4 	TotalLostPackets 	10
scalar RSUScenario.node[32].nic.mac1609_4 	DroppedPacketsInMac 	0
scalar RSUScenario.node[32].nic.mac1609_4 	TooLittleTime 	0
scalar RSUScenario.node[32].nic.mac1609_4 	TimesIntoBackoff 	654
scalar RSUScenario.node[32].nic.mac1609_4 	SlotsBackoff 	987
scalar RSUScenario.node[32].nic.mac1609_4 	NumInternalContention 	0
scalar RSUScenario.node[32].nic.mac1609_4 	totalBusyTime 	2.152861
scalar RSUScenario.node[32].nic.mac1609_4 	throughputMetricMac:last 	44.780493918778
attr source  throughputSignalMac
attr title  "throughputMetricMac, last"
scalar RSUScenario.node[32].nic.mac1609_4 	throughputMetricMac:count 	8954
attr source  throughputSignalMac
attr title  "throughputMetricMac, count"
scalar RSUScenario.node[32].nic.mac1609_4 	throughputMetricMac:sum 	229543.2821009
attr source  throughputSignalMac
attr title  "throughputMetricMac, sum"
scalar RSUScenario.node[32].nic.mac1609_4 	throughputMetricMac:mean 	25.635836732287
attr source  throughputSignalMac
attr title  "throughputMetricMac, mean"
scalar RSUScenario.node[32].veinsmobility 	startTime 	134.8
scalar RSUScenario.node[32].veinsmobility 	totalTime 	65.1
scalar RSUScenario.node[32].veinsmobility 	stopTime 	200
scalar RSUScenario.node[32].veinsmobility 	minSpeed 	1.488821559745e-11
scalar RSUScenario.node[32].veinsmobility 	maxSpeed 	13.885159029737
scalar RSUScenario.node[32].veinsmobility 	totalDistance 	247.56445362989
scalar RSUScenario.node[32].veinsmobility 	totalCO2Emission 	134.18094000641
scalar RSUScenario.node[33].nic.phy80211p 	busyTime 	0.030908032
scalar RSUScenario.node[33].nic.mac1609_4 	throughputMetricMac 	43.005077875934
scalar RSUScenario.node[33].nic.mac1609_4 	throughputMbps 	0.045418963549612
scalar RSUScenario.node[33].nic.mac1609_4 	throughputControlMbps 	0
scalar RSUScenario.node[33].nic.mac1609_4 	ReceivedUnicastPackets 	0
scalar RSUScenario.node[33].nic.mac1609_4 	ReceivedBroadcasts 	8599
scalar RSUScenario.node[33].nic.mac1609_4 	SentPackets 	626
scalar RSUScenario.node[33].nic.mac1609_4 	SNIRLostPackets 	24
scalar RSUScenario.node[33].nic.mac1609_4 	RXTXLostPackets 	0
scalar RSUScenario.node[33].nic.mac1609_4 	TotalLostPackets 	24
scalar RSUScenario.node[33].nic.mac1609_4 	DroppedPacketsInMac 	0
scalar RSUScenario.node[33].nic.mac1609_4 	TooLittleTime 	0
scalar RSUScenario.node[33].nic.mac1609_4 	TimesIntoBackoff 	626
scalar RSUScenario.node[33].nic.mac1609_4 	SlotsBackoff 	973
scalar RSUScenario.node[33].nic.mac1609_4 	NumInternalContention 	0
scalar RSUScenario.node[33].nic.mac1609_4 	totalBusyTime 	2.067266
scalar RSUScenario.node[33].nic.mac1609_4 	throughputMetricMac:last 	43.005077875934
attr source  throughputSignalMac
attr title  "throughputMetricMac, last"
scalar RSUScenario.node[33].nic.mac1609_4 	throughputMetricMac:count 	8599
attr source  throughputSignalMac
attr title  "throughputMetricMac, count"
scalar RSUScenario.node[33].nic.mac1609_4 	throughputMetricMac:sum 	210496.05293235
attr source  throughputSignalMac
attr title  "throughputMetricMac, sum"
scalar RSUScenario.node[33].nic.mac1609_4 	throughputMetricMac:mean 	24.479131635347
attr source  throughputSignalMac
attr title  "throughputMetricMac, mean"
scalar RSUScenario.node[33].veinsmobility 	startTime 	137.5
scalar RSUScenario.node[33].veinsmobility 	totalTime 	62.4
scalar RSUScenario.node[33].veinsmobility 	stopTime 	200
scalar RSUScenario.node[33].veinsmobility 	minSpeed 	2.352355276863e-10
scalar RSUScenario.node[33].veinsmobility 	maxSpeed 	13.81138533415
scalar RSUScenario.node[33].veinsmobility 	totalDistance 	224.42630167405
scalar RSUScenario.node[33].veinsmobility 	totalCO2Emission 	115.69774112144
scalar RSUScenario.node[7].nic.phy80211p 	busyTime 	0.036213851971911
scalar RSUScenario.node[7].nic.mac1609_4 	throughputMetricMac 	147.49149171649
scalar RSUScenario.node[7].nic.mac1609_4 	throughputMbps 	0.15577566135034
scalar RSUScenario.node[7].nic.mac1609_4 	throughputControlMbps 	0
scalar RSUScenario.node[7].nic.mac1609_4 	ReceivedUnicastPackets 	0
scalar RSUScenario.node[7].nic.mac1609_4 	ReceivedBroadcasts 	29491
scalar RSUScenario.node[7].nic.mac1609_4 	SentPackets 	1852
scalar RSUScenario.node[7].nic.mac1609_4 	SNIRLostPackets 	226
scalar RSUScenario.node[7].nic.mac1609_4 	RXTXLostPackets 	336
scalar RSUScenario.node[7].nic.mac1609_4 	TotalLostPackets 	562
scalar RSUScenario.node[7].nic.mac1609_4 	DroppedPacketsInMac 	0
scalar RSUScenario.node[7].nic.mac1609_4 	TooLittleTime 	0
scalar RSUScenario.node[7].nic.mac1609_4 	TimesIntoBackoff 	2590
scalar RSUScenario.node[7].nic.mac1609_4 	SlotsBackoff 	3925
scalar RSUScenario.node[7].nic.mac1609_4 	NumInternalContention 	0
scalar RSUScenario.node[7].nic.mac1609_4 	totalBusyTime 	7.071764472204
scalar RSUScenario.node[7].nic.mac1609_4 	throughputMetricMac:last 	147.49149171649
attr source  throughputSignalMac
attr title  "throughputMetricMac, last"
scalar RSUScenario.node[7].nic.mac1609_4 	throughputMetricMac:count 	29491
attr source  throughputSignalMac
attr title  "throughputMetricMac, count"
scalar RSUScenario.node[7].nic.mac1609_4 	throughputMetricMac:sum 	3432891.5143633
attr source  throughputSignalMac
attr title  "throughputMetricMac, sum"
scalar RSUScenario.node[7].nic.mac1609_4 	throughputMetricMac:mean 	116.40471718027
attr source  throughputSignalMac
attr title  "throughputMetricMac, mean"
scalar RSUScenario.node[7].veinsmobility 	startTime 	14.9
scalar RSUScenario.node[7].veinsmobility 	totalTime 	185
scalar RSUScenario.node[7].veinsmobility 	stopTime 	200
scalar RSUScenario.node[7].veinsmobility 	minSpeed 	9.3395972443443e-06
scalar RSUScenario.node[7].veinsmobility 	maxSpeed 	27.779999478573
scalar RSUScenario.node[7].veinsmobility 	totalDistance 	2533.9896857464
scalar RSUScenario.node[7].veinsmobility 	totalCO2Emission 	612.25028626435
scalar RSUScenario.node[34].nic.phy80211p 	busyTime 	0.031209765886287
scalar RSUScenario.node[34].nic.mac1609_4 	throughputMetricMac 	41.434709883607
scalar RSUScenario.node[34].nic.mac1609_4 	throughputMbps 	0.043760654949715
scalar RSUScenario.node[34].nic.mac1609_4 	throughputControlMbps 	0
scalar RSUScenario.node[34].nic.mac1609_4 	ReceivedUnicastPackets 	0
scalar RSUScenario.node[34].nic.mac1609_4 	ReceivedBroadcasts 	8285
scalar RSUScenario.node[34].nic.mac1609_4 	SentPackets 	599
scalar RSUScenario.node[34].nic.mac1609_4 	SNIRLostPackets 	46
scalar RSUScenario.node[34].nic.mac1609_4 	RXTXLostPackets 	0
scalar RSUScenario.node[34].nic.mac1609_4 	TotalLostPackets 	46
scalar RSUScenario.node[34].nic.mac1609_4 	DroppedPacketsInMac 	0
scalar RSUScenario.node[34].nic.mac1609_4 	TooLittleTime 	0
scalar RSUScenario.node[34].nic.mac1609_4 	TimesIntoBackoff 	599
scalar RSUScenario.node[34].nic.mac1609_4 	SlotsBackoff 	930
scalar RSUScenario.node[34].nic.mac1609_4 	NumInternalContention 	0
scalar RSUScenario.node[34].nic.mac1609_4 	totalBusyTime 	1.990855
scalar RSUScenario.node[34].nic.mac1609_4 	throughputMetricMac:last 	41.434709883607
attr source  throughputSignalMac
attr title  "throughputMetricMac, last"
scalar RSUScenario.node[34].nic.mac1609_4 	throughputMetricMac:count 	8285
attr source  throughputSignalMac
attr title  "throughputMetricMac, count"
scalar RSUScenario.node[34].nic.mac1609_4 	throughputMetricMac:sum 	194102.79758984
attr source  throughputSignalMac
attr title  "throughputMetricMac, sum"
scalar RSUScenario.node[34].nic.mac1609_4 	throughputMetricMac:mean 	23.428219383203
attr source  throughputSignalMac
attr title  "throughputMetricMac, mean"
scalar RSUScenario.node[34].veinsmobility 	startTime 	140.2
scalar RSUScenario.node[34].veinsmobility 	totalTime 	59.7
scalar RSUScenario.node[34].veinsmobility 	stopTime 	200
scalar RSUScenario.node[34].veinsmobility 	minSpeed 	2.3258870198125e-09
scalar RSUScenario.node[34].veinsmobility 	maxSpeed 	13.543995083708
scalar RSUScenario.node[34].veinsmobility 	totalDistance 	209.39576782647
scalar RSUScenario.node[34].veinsmobility 	totalCO2Emission 	106.67480789273
scalar RSUScenario.node[35].nic.phy80211p 	busyTime 	0.031572329749104
scalar RSUScenario.node[35].nic.mac1609_4 	throughputMetricMac 	38.86410749653
scalar RSUScenario.node[35].nic.mac1609_4 	throughputMbps 	0.041046098828964
scalar RSUScenario.node[35].nic.mac1609_4 	throughputControlMbps 	0
scalar RSUScenario.node[35].nic.mac1609_4 	ReceivedUnicastPackets 	0
scalar RSUScenario.node[35].nic.mac1609_4 	ReceivedBroadcasts 	7771
scalar RSUScenario.node[35].nic.mac1609_4 	SentPackets 	559
scalar RSUScenario.node[35].nic.mac1609_4 	SNIRLostPackets 	93
scalar RSUScenario.node[35].nic.mac1609_4 	RXTXLostPackets 	0
scalar RSUScenario.node[35].nic.mac1609_4 	TotalLostPackets 	93
scalar RSUScenario.node[35].nic.mac1609_4 	DroppedPacketsInMac 	0
scalar RSUScenario.node[35].nic.mac1609_4 	TooLittleTime 	0
scalar RSUScenario.node[35].nic.mac1609_4 	TimesIntoBackoff 	818
scalar RSUScenario.node[35].nic.mac1609_4 	SlotsBackoff 	1215
scalar RSUScenario.node[35].nic.mac1609_4 	NumInternalContention 	0
scalar RSUScenario.node[35].nic.mac1609_4 	totalBusyTime 	1.866719
scalar RSUScenario.node[35].nic.mac1609_4 	throughputMetricMac:last 	38.86410749653
attr source  throughputSignalMac
attr title  "throughputMetricMac, last"
scalar RSUScenario.node[35].nic.mac1609_4 	throughputMetricMac:count 	7771
attr source  throughputSignalMac
attr title  "throughputMetricMac, count"
scalar RSUScenario.node[35].nic.mac1609_4 	throughputMetricMac:sum 	169131.17101983
attr source  throughputSignalMac
attr title  "throughputMetricMac, sum"
scalar RSUScenario.node[35].nic.mac1609_4 	throughputMetricMac:mean 	21.764402396066
attr source  throughputSignalMac
attr title  "throughputMetricMac, mean"
scalar RSUScenario.node[35].veinsmobility 	startTime 	144.2
scalar RSUScenario.node[35].veinsmobility 	totalTime 	55.7
scalar RSUScenario.node[35].veinsmobility 	stopTime 	200
scalar RSUScenario.node[35].veinsmobility 	minSpeed 	1.7520534513235e-08
scalar RSUScenario.node[35].veinsmobility 	maxSpeed 	13.257615098739
scalar RSUScenario.node[35].veinsmobility 	totalDistance 	189.37029149282
scalar RSUScenario.node[35].veinsmobility 	totalCO2Emission 	100.61807446852
scalar RSUScenario.node[36].nic.phy80211p 	busyTime 	0.028255135135135
scalar RSUScenario.node[36].nic.mac1609_4 	throughputMetricMac 	15.913729263571
scalar RSUScenario.node[36].nic.mac1609_4 	throughputMbps 	0.016804898102332
scalar RSUScenario.node[36].nic.mac1609_4 	throughputControlMbps 	0
scalar RSUScenario.node[36].nic.mac1609_4 	ReceivedUnicastPackets 	0
scalar RSUScenario.node[36].nic.mac1609_4 	ReceivedBroadcasts 	3182
scalar RSUScenario.node[36].nic.mac1609_4 	SentPackets 	259
scalar RSUScenario.node[36].nic.mac1609_4 	SNIRLostPackets 	85
scalar RSUScenario.node[36].nic.mac1609_4 	RXTXLostPackets 	0
scalar RSUScenario.node[36].nic.mac1609_4 	TotalLostPackets 	85
scalar RSUScenario.node[36].nic.mac1609_4 	DroppedPacketsInMac 	0
scalar RSUScenario.node[36].nic.mac1609_4 	TooLittleTime 	0
scalar RSUScenario.node[36].nic.mac1609_4 	TimesIntoBackoff 	259
scalar RSUScenario.node[36].nic.mac1609_4 	SlotsBackoff 	358
scalar RSUScenario.node[36].nic.mac1609_4 	NumInternalContention 	0
scalar RSUScenario.node[36].nic.mac1609_4 	totalBusyTime 	0.771043
scalar RSUScenario.node[36].nic.mac1609_4 	throughputMetricMac:last 	15.913729263571
attr source  throughputSignalMac
attr title  "throughputMetricMac, last"
scalar RSUScenario.node[36].nic.mac1609_4 	throughputMetricMac:count 	3182
attr source  throughputSignalMac
attr title  "throughputMetricMac, count"
scalar RSUScenario.node[36].nic.mac1609_4 	throughputMetricMac:sum 	26421.432689384
attr source  throughputSignalMac
attr title  "throughputMetricMac, sum"
scalar RSUScenario.node[36].nic.mac1609_4 	throughputMetricMac:mean 	8.3034043649856
attr source  throughputSignalMac
attr title  "throughputMetricMac, mean"
scalar RSUScenario.node[36].veinsmobility 	startTime 	174.1
scalar RSUScenario.node[36].veinsmobility 	totalTime 	25.8
scalar RSUScenario.node[36].veinsmobility 	stopTime 	200
scalar RSUScenario.node[36].veinsmobility 	minSpeed 	0.25625992992311
scalar RSUScenario.node[36].veinsmobility 	maxSpeed 	13.164590423962
scalar RSUScenario.node[36].veinsmobility 	totalDistance 	161.18325475396
scalar RSUScenario.node[36].veinsmobility 	totalCO2Emission 	66.894721884124
scalar RSUScenario.node[37].nic.phy80211p 	busyTime 	0.029052413793102
scalar RSUScenario.node[37].nic.mac1609_4 	throughputMetricMac 	14.743588044199
scalar RSUScenario.node[37].nic.mac1609_4 	throughputMbps 	0.015569228974674
scalar RSUScenario.node[37].nic.mac1609_4 	throughputControlMbps 	0
scalar RSUScenario.node[37].nic.mac1609_4 	ReceivedUnicastPackets 	0
scalar RSUScenario.node[37].nic.mac1609_4 	ReceivedBroadcasts 	2948
scalar RSUScenario.node[37].nic.mac1609_4 	SentPackets 	232
scalar RSUScenario.node[37].nic.mac1609_4 	SNIRLostPackets 	61
scalar RSUScenario.node[37].nic.mac1609_4 	RXTXLostPackets 	0
scalar RSUScenario.node[37].nic.mac1609_4 	TotalLostPackets 	61
scalar RSUScenario.node[37].nic.mac1609_4 	DroppedPacketsInMac 	0
scalar RSUScenario.node[37].nic.mac1609_4 	TooLittleTime 	0
scalar RSUScenario.node[37].nic.mac1609_4 	TimesIntoBackoff 	232
scalar RSUScenario.node[37].nic.mac1609_4 	SlotsBackoff 	345
scalar RSUScenario.node[37].nic.mac1609_4 	NumInternalContention 	0
scalar RSUScenario.node[37].nic.mac1609_4 	totalBusyTime 	0.712552
scalar RSUScenario.node[37].nic.mac1609_4 	throughputMetricMac:last 	14.743588044199
attr source  throughputSignalMac
attr title  "throughputMetricMac, last"
scalar RSUScenario.node[37].nic.mac1609_4 	throughputMetricMac:count 	2948
attr source  throughputSignalMac
attr title  "throughputMetricMac, count"
scalar RSUScenario.node[37].nic.mac1609_4 	throughputMetricMac:sum 	22576.538185334
attr source  throughputSignalMac
attr title  "throughputMetricMac, sum"
scalar RSUScenario.node[37].nic.mac1609_4 	throughputMetricMac:mean 	7.6582558294893
attr source  throughputSignalMac
attr title  "throughputMetricMac, mean"
scalar RSUScenario.node[37].veinsmobility 	startTime 	176.8
scalar RSUScenario.node[37].veinsmobility 	totalTime 	23.1
scalar RSUScenario.node[37].veinsmobility 	stopTime 	200
scalar RSUScenario.node[37].veinsmobility 	minSpeed 	0.25220700715506
scalar RSUScenario.node[37].veinsmobility 	maxSpeed 	8.9138483940974
scalar RSUScenario.node[37].veinsmobility 	totalDistance 	131.33955779237
scalar RSUScenario.node[37].veinsmobility 	totalCO2Emission 	51.230726177134
scalar RSUScenario.node[38].nic.phy80211p 	busyTime 	0.029837669902913
scalar RSUScenario.node[38].nic.mac1609_4 	throughputMetricMac 	13.513166712942
scalar RSUScenario.node[38].nic.mac1609_4 	throughputMbps 	0.014269904048867
scalar RSUScenario.node[38].nic.mac1609_4 	throughputControlMbps 	0
scalar RSUScenario.node[38].nic.mac1609_4 	ReceivedUnicastPackets 	0
scalar RSUScenario.node[38].nic.mac1609_4 	ReceivedBroadcasts 	2702
scalar RSUScenario.node[38].nic.mac1609_4 	SentPackets 	206
scalar RSUScenario.node[38].nic.mac1609_4 	SNIRLostPackets 	42
scalar RSUScenario.node[38].nic.mac1609_4 	RXTXLostPackets 	0
scalar RSUScenario.node[38].nic.mac1609_4 	TotalLostPackets 	42
scalar RSUScenario.node[38].nic.mac1609_4 	DroppedPacketsInMac 	0
scalar RSUScenario.node[38].nic.mac1609_4 	TooLittleTime 	0
scalar RSUScenario.node[38].nic.mac1609_4 	TimesIntoBackoff 	206
scalar RSUScenario.node[38].nic.mac1609_4 	SlotsBackoff 	270
scalar RSUScenario.node[38].nic.mac1609_4 	NumInternalContention 	0
scalar RSUScenario.node[38].nic.mac1609_4 	totalBusyTime 	0.651598
scalar RSUScenario.node[38].nic.mac1609_4 	throughputMetricMac:last 	13.513166712942
attr source  throughputSignalMac
attr title  "throughputMetricMac, last"
scalar RSUScenario.node[38].nic.mac1609_4 	throughputMetricMac:count 	2702
attr source  throughputSignalMac
attr title  "throughputMetricMac, count"
scalar RSUScenario.node[38].nic.mac1609_4 	throughputMetricMac:sum 	18889.198470375
attr source  throughputSignalMac
attr title  "throughputMetricMac, sum"
scalar RSUScenario.node[38].nic.mac1609_4 	throughputMetricMac:mean 	6.990821047511
attr source  throughputSignalMac
attr title  "throughputMetricMac, mean"
scalar RSUScenario.node[38].veinsmobility 	startTime 	179.4
scalar RSUScenario.node[38].veinsmobility 	totalTime 	20.5
scalar RSUScenario.node[38].veinsmobility 	stopTime 	200
scalar RSUScenario.node[38].veinsmobility 	minSpeed 	0.24723358103563
scalar RSUScenario.node[38].veinsmobility 	maxSpeed 	9.2302363159563
scalar RSUScenario.node[38].veinsmobility 	totalDistance 	114.64528272803
scalar RSUScenario.node[38].veinsmobility 	totalCO2Emission 	40.166893334068
scalar RSUScenario.node[39].nic.phy80211p 	busyTime 	0.030596648044693
scalar RSUScenario.node[39].nic.mac1609_4 	throughputMetricMac 	12.022817458392
scalar RSUScenario.node[39].nic.mac1609_4 	throughputMbps 	0.012696095236062
scalar RSUScenario.node[39].nic.mac1609_4 	throughputControlMbps 	0
scalar RSUScenario.node[39].nic.mac1609_4 	ReceivedUnicastPackets 	0
scalar RSUScenario.node[39].nic.mac1609_4 	ReceivedBroadcasts 	2404
scalar RSUScenario.node[39].nic.mac1609_4 	SentPackets 	179
scalar RSUScenario.node[39].nic.mac1609_4 	SNIRLostPackets 	41
scalar RSUScenario.node[39].nic.mac1609_4 	RXTXLostPackets 	0
scalar RSUScenario.node[39].nic.mac1609_4 	TotalLostPackets 	41
scalar RSUScenario.node[39].nic.mac1609_4 	DroppedPacketsInMac 	0
scalar RSUScenario.node[39].nic.mac1609_4 	TooLittleTime 	0
scalar RSUScenario.node[39].nic.mac1609_4 	TimesIntoBackoff 	179
scalar RSUScenario.node[39].nic.mac1609_4 	SlotsBackoff 	281
scalar RSUScenario.node[39].nic.mac1609_4 	NumInternalContention 	0
scalar RSUScenario.node[39].nic.mac1609_4 	totalBusyTime 	0.578771
scalar RSUScenario.node[39].nic.mac1609_4 	throughputMetricMac:last 	12.022817458392
attr source  throughputSignalMac
attr title  "throughputMetricMac, last"
scalar RSUScenario.node[39].nic.mac1609_4 	throughputMetricMac:count 	2404
attr source  throughputSignalMac
attr title  "throughputMetricMac, count"
scalar RSUScenario.node[39].nic.mac1609_4 	throughputMetricMac:sum 	14885.96329013
attr source  throughputSignalMac
attr title  "throughputMetricMac, sum"
scalar RSUScenario.node[39].nic.mac1609_4 	throughputMetricMac:mean 	6.1921644301705
attr source  throughputSignalMac
attr title  "throughputMetricMac, mean"
scalar RSUScenario.node[39].veinsmobility 	startTime 	182.1
scalar RSUScenario.node[39].veinsmobility 	totalTime 	17.8
scalar RSUScenario.node[39].veinsmobility 	stopTime 	200
scalar RSUScenario.node[39].veinsmobility 	minSpeed 	0.24731566984137
scalar RSUScenario.node[39].veinsmobility 	maxSpeed 	9.4646588476734
scalar RSUScenario.node[39].veinsmobility 	totalDistance 	102.3318270194
scalar RSUScenario.node[39].veinsmobility 	totalCO2Emission 	35.193260088963
scalar RSUScenario.node[40].nic.phy80211p 	busyTime 	0.031286315789472
scalar RSUScenario.node[40].nic.mac1609_4 	throughputMetricMac 	10.437445932596
scalar RSUScenario.node[40].nic.mac1609_4 	throughputMbps 	0.011021942904821
scalar RSUScenario.node[40].nic.mac1609_4 	throughputControlMbps 	0
scalar RSUScenario.node[40].nic.mac1609_4 	ReceivedUnicastPackets 	0
scalar RSUScenario.node[40].nic.mac1609_4 	ReceivedBroadcasts 	2087
scalar RSUScenario.node[40].nic.mac1609_4 	SentPackets 	152
scalar RSUScenario.node[40].nic.mac1609_4 	SNIRLostPackets 	36
scalar RSUScenario.node[40].nic.mac1609_4 	RXTXLostPackets 	0
scalar RSUScenario.node[40].nic.mac1609_4 	TotalLostPackets 	36
scalar RSUScenario.node[40].nic.mac1609_4 	DroppedPacketsInMac 	0
scalar RSUScenario.node[40].nic.mac1609_4 	TooLittleTime 	0
scalar RSUScenario.node[40].nic.mac1609_4 	TimesIntoBackoff 	152
scalar RSUScenario.node[40].nic.mac1609_4 	SlotsBackoff 	214
scalar RSUScenario.node[40].nic.mac1609_4 	NumInternalContention 	0
scalar RSUScenario.node[40].nic.mac1609_4 	totalBusyTime 	0.501688
scalar RSUScenario.node[40].nic.mac1609_4 	throughputMetricMac:last 	10.437445932596
attr source  throughputSignalMac
attr title  "throughputMetricMac, last"
scalar RSUScenario.node[40].nic.mac1609_4 	throughputMetricMac:count 	2087
attr source  throughputSignalMac
attr title  "throughputMetricMac, count"
scalar RSUScenario.node[40].nic.mac1609_4 	throughputMetricMac:sum 	11169.413885255
attr source  throughputSignalMac
attr title  "throughputMetricMac, sum"
scalar RSUScenario.node[40].nic.mac1609_4 	throughputMetricMac:mean 	5.3518993221157
attr source  throughputSignalMac
attr title  "throughputMetricMac, mean"
scalar RSUScenario.node[40].veinsmobility 	startTime 	184.8
scalar RSUScenario.node[40].veinsmobility 	totalTime 	15.1
scalar RSUScenario.node[40].veinsmobility 	stopTime 	200
scalar RSUScenario.node[40].veinsmobility 	minSpeed 	0
scalar RSUScenario.node[40].veinsmobility 	maxSpeed 	9.6146447517193
scalar RSUScenario.node[40].veinsmobility 	totalDistance 	65.796974622956
scalar RSUScenario.node[40].veinsmobility 	totalCO2Emission 	28.722431884873
scalar RSUScenario.node[41].nic.phy80211p 	busyTime 	0.031982222222222
scalar RSUScenario.node[41].nic.mac1609_4 	throughputMetricMac 	8.8220673803752
scalar RSUScenario.node[41].nic.mac1609_4 	throughputMbps 	0.0093161031536758
scalar RSUScenario.node[41].nic.mac1609_4 	throughputControlMbps 	0
scalar RSUScenario.node[41].nic.mac1609_4 	ReceivedUnicastPackets 	0
scalar RSUScenario.node[41].nic.mac1609_4 	ReceivedBroadcasts 	1764
scalar RSUScenario.node[41].nic.mac1609_4 	SentPackets 	126
scalar RSUScenario.node[41].nic.mac1609_4 	SNIRLostPackets 	35
scalar RSUScenario.node[41].nic.mac1609_4 	RXTXLostPackets 	0
scalar RSUScenario.node[41].nic.mac1609_4 	TotalLostPackets 	35
scalar RSUScenario.node[41].nic.mac1609_4 	DroppedPacketsInMac 	0
scalar RSUScenario.node[41].nic.mac1609_4 	TooLittleTime 	0
scalar RSUScenario.node[41].nic.mac1609_4 	TimesIntoBackoff 	126
scalar RSUScenario.node[41].nic.mac1609_4 	SlotsBackoff 	184
scalar RSUScenario.node[41].nic.mac1609_4 	NumInternalContention 	0
scalar RSUScenario.node[41].nic.mac1609_4 	totalBusyTime 	0.423486
scalar RSUScenario.node[41].nic.mac1609_4 	throughputMetricMac:last 	8.8220673803752
attr source  throughputSignalMac
attr title  "throughputMetricMac, last"
scalar RSUScenario.node[41].nic.mac1609_4 	throughputMetricMac:count 	1764
attr source  throughputSignalMac
attr title  "throughputMetricMac, count"
scalar RSUScenario.node[41].nic.mac1609_4 	throughputMetricMac:sum 	7945.5971550637
attr source  throughputSignalMac
attr title  "throughputMetricMac, sum"
scalar RSUScenario.node[41].nic.mac1609_4 	throughputMetricMac:mean 	4.504306777247
attr source  throughputSignalMac
attr title  "throughputMetricMac, mean"
scalar RSUScenario.node[41].veinsmobility 	startTime 	187.4
scalar RSUScenario.node[41].veinsmobility 	totalTime 	12.5
scalar RSUScenario.node[41].veinsmobility 	stopTime 	200
scalar RSUScenario.node[41].veinsmobility 	minSpeed 	0.16250704811017
scalar RSUScenario.node[41].veinsmobility 	maxSpeed 	9.6936748169282
scalar RSUScenario.node[41].veinsmobility 	totalDistance 	58.15360773702
scalar RSUScenario.node[41].veinsmobility 	totalCO2Emission 	25.535775143382
scalar RSUScenario.node[42].nic.phy80211p 	busyTime 	0.03269494949495
scalar RSUScenario.node[42].nic.mac1609_4 	throughputMetricMac 	7.0566536688983
scalar RSUScenario.node[42].nic.mac1609_4 	throughputMbps 	0.0074518262743564
scalar RSUScenario.node[42].nic.mac1609_4 	throughputControlMbps 	0
scalar RSUScenario.node[42].nic.mac1609_4 	ReceivedUnicastPackets 	0
scalar RSUScenario.node[42].nic.mac1609_4 	ReceivedBroadcasts 	1411
scalar RSUScenario.node[42].nic.mac1609_4 	SentPackets 	99
scalar RSUScenario.node[42].nic.mac1609_4 	SNIRLostPackets 	34
scalar RSUScenario.node[42].nic.mac1609_4 	RXTXLostPackets 	0
scalar RSUScenario.node[42].nic.mac1609_4 	TotalLostPackets 	34
scalar RSUScenario.node[42].nic.mac1609_4 	DroppedPacketsInMac 	0
scalar RSUScenario.node[42].nic.mac1609_4 	TooLittleTime 	0
scalar RSUScenario.node[42].nic.mac1609_4 	TimesIntoBackoff 	99
scalar RSUScenario.node[42].nic.mac1609_4 	SlotsBackoff 	139
scalar RSUScenario.node[42].nic.mac1609_4 	NumInternalContention 	0
scalar RSUScenario.node[42].nic.mac1609_4 	totalBusyTime 	0.338339
scalar RSUScenario.node[42].nic.mac1609_4 	throughputMetricMac:last 	7.0566536688983
attr source  throughputSignalMac
attr title  "throughputMetricMac, last"
scalar RSUScenario.node[42].nic.mac1609_4 	throughputMetricMac:count 	1411
attr source  throughputSignalMac
attr title  "throughputMetricMac, count"
scalar RSUScenario.node[42].nic.mac1609_4 	throughputMetricMac:sum 	5061.6663546423
attr source  throughputSignalMac
attr title  "throughputMetricMac, sum"
scalar RSUScenario.node[42].nic.mac1609_4 	throughputMetricMac:mean 	3.5872901166848
attr source  throughputSignalMac
attr title  "throughputMetricMac, mean"
scalar RSUScenario.node[42].veinsmobility 	startTime 	190.1
scalar RSUScenario.node[42].veinsmobility 	totalTime 	9.8
scalar RSUScenario.node[42].veinsmobility 	stopTime 	200
scalar RSUScenario.node[42].veinsmobility 	minSpeed 	0.25042752398225
scalar RSUScenario.node[42].veinsmobility 	maxSpeed 	9.8830903956957
scalar RSUScenario.node[42].veinsmobility 	totalDistance 	49.334652904052
scalar RSUScenario.node[42].veinsmobility 	totalCO2Emission 	23.394146380943
scalar RSUScenario.node[43].nic.phy80211p 	busyTime 	0.033477260273973
scalar RSUScenario.node[43].nic.mac1609_4 	throughputMetricMac 	5.3012423015711
scalar RSUScenario.node[43].nic.mac1609_4 	throughputMbps 	0.0055981118704589
scalar RSUScenario.node[43].nic.mac1609_4 	throughputControlMbps 	0
scalar RSUScenario.node[43].nic.mac1609_4 	ReceivedUnicastPackets 	0
scalar RSUScenario.node[43].nic.mac1609_4 	ReceivedBroadcasts 	1060
scalar RSUScenario.node[43].nic.mac1609_4 	SentPackets 	73
scalar RSUScenario.node[43].nic.mac1609_4 	SNIRLostPackets 	31
scalar RSUScenario.node[43].nic.mac1609_4 	RXTXLostPackets 	0
scalar RSUScenario.node[43].nic.mac1609_4 	TotalLostPackets 	31
scalar RSUScenario.node[43].nic.mac1609_4 	DroppedPacketsInMac 	0
scalar RSUScenario.node[43].nic.mac1609_4 	TooLittleTime 	0
scalar RSUScenario.node[43].nic.mac1609_4 	TimesIntoBackoff 	73
scalar RSUScenario.node[43].nic.mac1609_4 	SlotsBackoff 	102
scalar RSUScenario.node[43].nic.mac1609_4 	NumInternalContention 	0
scalar RSUScenario.node[43].nic.mac1609_4 	totalBusyTime 	0.253865
scalar RSUScenario.node[43].nic.mac1609_4 	throughputMetricMac:last 	5.3012423015711
attr source  throughputSignalMac
attr title  "throughputMetricMac, last"
scalar RSUScenario.node[43].nic.mac1609_4 	throughputMetricMac:count 	1060
attr source  throughputSignalMac
attr title  "throughputMetricMac, count"
scalar RSUScenario.node[43].nic.mac1609_4 	throughputMetricMac:sum 	2845.0444432726
attr source  throughputSignalMac
attr title  "throughputMetricMac, sum"
scalar RSUScenario.node[43].nic.mac1609_4 	throughputMetricMac:mean 	2.6840041917666
attr source  throughputSignalMac
attr title  "throughputMetricMac, mean"
scalar RSUScenario.node[43].veinsmobility 	startTime 	192.7
scalar RSUScenario.node[43].veinsmobility 	totalTime 	7.2
scalar RSUScenario.node[43].veinsmobility 	stopTime 	200
scalar RSUScenario.node[43].veinsmobility 	minSpeed 	0.25837736929301
scalar RSUScenario.node[43].veinsmobility 	maxSpeed 	8.5575738721351
scalar RSUScenario.node[43].veinsmobility 	totalDistance 	36.907281915621
scalar RSUScenario.node[43].veinsmobility 	totalCO2Emission 	17.587179670678
scalar RSUScenario.node[8].nic.phy80211p 	busyTime 	0.037547441095895
scalar RSUScenario.node[8].nic.mac1609_4 	throughputMetricMac 	149.00186552114
scalar RSUScenario.node[8].nic.mac1609_4 	throughputMbps 	0.15737173636524
scalar RSUScenario.node[8].nic.mac1609_4 	throughputControlMbps 	0
scalar RSUScenario.node[8].nic.mac1609_4 	ReceivedUnicastPackets 	0
scalar RSUScenario.node[8].nic.mac1609_4 	ReceivedBroadcasts 	29793
scalar RSUScenario.node[8].nic.mac1609_4 	SentPackets 	1826
scalar RSUScenario.node[8].nic.mac1609_4 	SNIRLostPackets 	794
scalar RSUScenario.node[8].nic.mac1609_4 	RXTXLostPackets 	0
scalar RSUScenario.node[8].nic.mac1609_4 	TotalLostPackets 	794
scalar RSUScenario.node[8].nic.mac1609_4 	DroppedPacketsInMac 	0
scalar RSUScenario.node[8].nic.mac1609_4 	TooLittleTime 	0
scalar RSUScenario.node[8].nic.mac1609_4 	TimesIntoBackoff 	1827
scalar RSUScenario.node[8].nic.mac1609_4 	SlotsBackoff 	2765
scalar RSUScenario.node[8].nic.mac1609_4 	NumInternalContention 	0
scalar RSUScenario.node[8].nic.mac1609_4 	totalBusyTime 	7.167941640373
scalar RSUScenario.node[8].nic.mac1609_4 	throughputMetricMac:last 	149.00186552114
attr source  throughputSignalMac
attr title  "throughputMetricMac, last"
scalar RSUScenario.node[8].nic.mac1609_4 	throughputMetricMac:count 	29793
attr source  throughputSignalMac
attr title  "throughputMetricMac, count"
scalar RSUScenario.node[8].nic.mac1609_4 	throughputMetricMac:sum 	3477655.3993112
attr source  throughputSignalMac
attr title  "throughputMetricMac, sum"
scalar RSUScenario.node[8].nic.mac1609_4 	throughputMetricMac:mean 	116.72726477062
attr source  throughputSignalMac
attr title  "throughputMetricMac, mean"
scalar RSUScenario.node[8].veinsmobility 	startTime 	17.5
scalar RSUScenario.node[8].veinsmobility 	totalTime 	182.4
scalar RSUScenario.node[8].veinsmobility 	stopTime 	200
scalar RSUScenario.node[8].veinsmobility 	minSpeed 	3.3149718504943e-05
scalar RSUScenario.node[8].veinsmobility 	maxSpeed 	27.779695479325
scalar RSUScenario.node[8].veinsmobility 	totalDistance 	2493.3207883804
scalar RSUScenario.node[8].veinsmobility 	totalCO2Emission 	606.33284903364
scalar RSUScenario.node[44].nic.phy80211p 	busyTime 	0.034086956521739
scalar RSUScenario.node[44].nic.mac1609_4 	throughputMetricMac 	3.435805151114
scalar RSUScenario.node[44].nic.mac1609_4 	throughputMbps 	0.0036282102395764
scalar RSUScenario.node[44].nic.mac1609_4 	throughputControlMbps 	0
scalar RSUScenario.node[44].nic.mac1609_4 	ReceivedUnicastPackets 	0
scalar RSUScenario.node[44].nic.mac1609_4 	ReceivedBroadcasts 	687
scalar RSUScenario.node[44].nic.mac1609_4 	SentPackets 	46
scalar RSUScenario.node[44].nic.mac1609_4 	SNIRLostPackets 	13
scalar RSUScenario.node[44].nic.mac1609_4 	RXTXLostPackets 	0
scalar RSUScenario.node[44].nic.mac1609_4 	TotalLostPackets 	13
scalar RSUScenario.node[44].nic.mac1609_4 	DroppedPacketsInMac 	0
scalar RSUScenario.node[44].nic.mac1609_4 	TooLittleTime 	0
scalar RSUScenario.node[44].nic.mac1609_4 	TimesIntoBackoff 	46
scalar RSUScenario.node[44].nic.mac1609_4 	SlotsBackoff 	83
scalar RSUScenario.node[44].nic.mac1609_4 	NumInternalContention 	0
scalar RSUScenario.node[44].nic.mac1609_4 	totalBusyTime 	0.164238
scalar RSUScenario.node[44].nic.mac1609_4 	throughputMetricMac:last 	3.435805151114
attr source  throughputSignalMac
attr title  "throughputMetricMac, last"
scalar RSUScenario.node[44].nic.mac1609_4 	throughputMetricMac:count 	687
attr source  throughputSignalMac
attr title  "throughputMetricMac, count"
scalar RSUScenario.node[44].nic.mac1609_4 	throughputMetricMac:sum 	1190.4781490538
attr source  throughputSignalMac
attr title  "throughputMetricMac, sum"
scalar RSUScenario.node[44].nic.mac1609_4 	throughputMetricMac:mean 	1.7328648457843
attr source  throughputSignalMac
attr title  "throughputMetricMac, mean"
scalar RSUScenario.node[44].veinsmobility 	startTime 	195.4
scalar RSUScenario.node[44].veinsmobility 	totalTime 	4.5
scalar RSUScenario.node[44].veinsmobility 	stopTime 	200
scalar RSUScenario.node[44].veinsmobility 	minSpeed 	0.25666146934405
scalar RSUScenario.node[44].veinsmobility 	maxSpeed 	7.4744861834779
scalar RSUScenario.node[44].veinsmobility 	totalDistance 	20.178826678902
scalar RSUScenario.node[44].veinsmobility 	totalCO2Emission 	12.512823055339
scalar RSUScenario.node[45].nic.phy80211p 	busyTime 	0.03584
scalar RSUScenario.node[45].nic.mac1609_4 	throughputMetricMac 	1.6003750335858
scalar RSUScenario.node[45].nic.mac1609_4 	throughputMbps 	0.0016899960354666
scalar RSUScenario.node[45].nic.mac1609_4 	throughputControlMbps 	0
scalar RSUScenario.node[45].nic.mac1609_4 	ReceivedUnicastPackets 	0
scalar RSUScenario.node[45].nic.mac1609_4 	ReceivedBroadcasts 	320
scalar RSUScenario.node[45].nic.mac1609_4 	SentPackets 	20
scalar RSUScenario.node[45].nic.mac1609_4 	SNIRLostPackets 	0
scalar RSUScenario.node[45].nic.mac1609_4 	RXTXLostPackets 	0
scalar RSUScenario.node[45].nic.mac1609_4 	TotalLostPackets 	0
scalar RSUScenario.node[45].nic.mac1609_4 	DroppedPacketsInMac 	0
scalar RSUScenario.node[45].nic.mac1609_4 	TooLittleTime 	0
scalar RSUScenario.node[45].nic.mac1609_4 	TimesIntoBackoff 	20
scalar RSUScenario.node[45].nic.mac1609_4 	SlotsBackoff 	28
scalar RSUScenario.node[45].nic.mac1609_4 	NumInternalContention 	0
scalar RSUScenario.node[45].nic.mac1609_4 	totalBusyTime 	0.07618
scalar RSUScenario.node[45].nic.mac1609_4 	throughputMetricMac:last 	1.6003750335858
attr source  throughputSignalMac
attr title  "throughputMetricMac, last"
scalar RSUScenario.node[45].nic.mac1609_4 	throughputMetricMac:count 	320
attr source  throughputSignalMac
attr title  "throughputMetricMac, count"
scalar RSUScenario.node[45].nic.mac1609_4 	throughputMetricMac:sum 	257.68891083265
attr source  throughputSignalMac
attr title  "throughputMetricMac, sum"
scalar RSUScenario.node[45].nic.mac1609_4 	throughputMetricMac:mean 	0.80527784635204
attr source  throughputSignalMac
attr title  "throughputMetricMac, mean"
scalar RSUScenario.node[45].veinsmobility 	startTime 	198
scalar RSUScenario.node[45].veinsmobility 	totalTime 	1.9
scalar RSUScenario.node[45].veinsmobility 	stopTime 	200
scalar RSUScenario.node[45].veinsmobility 	minSpeed 	0.25643119877833
[...]
scalar RSUScenario.node[9].veinsmobility 	maxSpeed 	27.779594284073
scalar RSUScenario.node[9].veinsmobility 	totalDistance 	2437.9278135925
scalar RSUScenario.node[9].veinsmobility 	totalCO2Emission 	598.72367657899
scalar RSUScenario.node[10].nic.phy80211p 	busyTime 	0.039446094808132
scalar RSUScenario.node[10].nic.mac1609_4 	throughputMetricMac 	147.74655521815
scalar RSUScenario.node[10].nic.mac1609_4 	throughputMbps 	0.15603492591356
scalar RSUScenario.node[10].nic.mac1609_4 	throughputControlMbps 	0
scalar RSUScenario.node[10].nic.mac1609_4 	ReceivedUnicastPackets 	0
scalar RSUScenario.node[10].nic.mac1609_4 	ReceivedBroadcasts 	29542
scalar RSUScenario.node[10].nic.mac1609_4 	SentPackets 	1773
scalar RSUScenario.node[10].nic.mac1609_4 	SNIRLostPackets 	1660
scalar RSUScenario.node[10].nic.mac1609_4 	RXTXLostPackets 	0
scalar RSUScenario.node[10].nic.mac1609_4 	TotalLostPackets 	1660
scalar RSUScenario.node[10].nic.mac1609_4 	DroppedPacketsInMac 	0
scalar RSUScenario.node[10].nic.mac1609_4 	TooLittleTime 	0
scalar RSUScenario.node[10].nic.mac1609_4 	TimesIntoBackoff 	1773
scalar RSUScenario.node[10].nic.mac1609_4 	SlotsBackoff 	2788
scalar RSUScenario.node[10].nic.mac1609_4 	NumInternalContention 	0
scalar RSUScenario.node[10].nic.mac1609_4 	totalBusyTime 	7.221221
scalar RSUScenario.node[10].nic.mac1609_4 	throughputMetricMac:last 	147.74655521815
attr source  throughputSignalMac
attr title  "throughputMetricMac, last"
scalar RSUScenario.node[10].nic.mac1609_4 	throughputMetricMac:count 	29542
attr source  throughputSignalMac
attr title  "throughputMetricMac, count"
scalar RSUScenario.node[10].nic.mac1609_4 	throughputMetricMac:sum 	3364046.3711286
attr source  throughputSignalMac
attr title  "throughputMetricMac, sum"
scalar RSUScenario.node[10].nic.mac1609_4 	throughputMetricMac:mean 	113.87334544474
attr source  throughputSignalMac
attr title  "throughputMetricMac, mean"
scalar RSUScenario.node[10].veinsmobility 	startTime 	22.8
scalar RSUScenario.node[10].veinsmobility 	totalTime 	177.1
scalar RSUScenario.node[10].veinsmobility 	stopTime 	200
scalar RSUScenario.node[10].veinsmobility 	minSpeed 	0
scalar RSUScenario.node[10].veinsmobility 	maxSpeed 	27.779247997364
scalar RSUScenario.node[10].veinsmobility 	totalDistance 	2368.9886880624
scalar RSUScenario.node[10].veinsmobility 	totalCO2Emission 	605.64394601598
scalar RSUScenario.node[11].nic.phy80211p 	busyTime 	0.039964673539525
scalar RSUScenario.node[11].nic.mac1609_4 	throughputMetricMac 	146.69129426357
scalar RSUScenario.node[11].nic.mac1609_4 	throughputMbps 	0.1549228108999
scalar RSUScenario.node[11].nic.mac1609_4 	throughputControlMbps 	0
scalar RSUScenario.node[11].nic.mac1609_4 	ReceivedUnicastPackets 	0
scalar RSUScenario.node[11].nic.mac1609_4 	ReceivedBroadcasts 	29331
scalar RSUScenario.node[11].nic.mac1609_4 	SentPackets 	1747
scalar RSUScenario.node[11].nic.mac1609_4 	SNIRLostPackets 	1817
scalar RSUScenario.node[11].nic.mac1609_4 	RXTXLostPackets 	0
scalar RSUScenario.node[11].nic.mac1609_4 	TotalLostPackets 	1817
scalar RSUScenario.node[11].nic.mac1609_4 	DroppedPacketsInMac 	0
scalar RSUScenario.node[11].nic.mac1609_4 	TooLittleTime 	0
scalar RSUScenario.node[11].nic.mac1609_4 	TimesIntoBackoff 	2819
scalar RSUScenario.node[11].nic.mac1609_4 	SlotsBackoff 	4305
scalar RSUScenario.node[11].nic.mac1609_4 	NumInternalContention 	0
scalar RSUScenario.node[11].nic.mac1609_4 	totalBusyTime 	7.182299
scalar RSUScenario.node[11].nic.mac1609_4 	throughputMetricMac:last 	146.69129426357
attr source  throughputSignalMac
attr title  "throughputMetricMac, last"
scalar RSUScenario.node[11].nic.mac1609_4 	throughputMetricMac:count 	29331
attr source  throughputSignalMac
attr title  "throughputMetricMac, count"
scalar RSUScenario.node[11].nic.mac1609_4 	throughputMetricMac:sum 	3276185.8428526
attr source  throughputSignalMac
attr title  "throughputMetricMac, sum"
scalar RSUScenario.node[11].nic.mac1609_4 	throughputMetricMac:mean 	111.69703872533
attr source  throughputSignalMac
attr title  "throughputMetricMac, mean"
scalar RSUScenario.node[11].veinsmobility 	startTime 	25.4
scalar RSUScenario.node[11].veinsmobility 	totalTime 	174.5
scalar RSUScenario.node[11].veinsmobility 	stopTime 	200
scalar RSUScenario.node[11].veinsmobility 	minSpeed 	5.2647337329042e-14
scalar RSUScenario.node[11].veinsmobility 	maxSpeed 	27.779618985592
scalar RSUScenario.node[11].veinsmobility 	totalDistance 	2313.2158913721
scalar RSUScenario.node[11].veinsmobility 	totalCO2Emission 	594.12426732287
scalar RSUScenario.node[12].nic.phy80211p 	busyTime 	0.040065116279075
scalar RSUScenario.node[12].nic.mac1609_4 	throughputMetricMac 	144.02105282865
scalar RSUScenario.node[12].nic.mac1609_4 	throughputMbps 	0.15211087795664
scalar RSUScenario.node[12].nic.mac1609_4 	throughputControlMbps 	0
scalar RSUScenario.node[12].nic.mac1609_4 	ReceivedUnicastPackets 	0
scalar RSUScenario.node[12].nic.mac1609_4 	ReceivedBroadcasts 	28797
scalar RSUScenario.node[12].nic.mac1609_4 	SentPackets 	1721
scalar RSUScenario.node[12].nic.mac1609_4 	SNIRLostPackets 	1963
scalar RSUScenario.node[12].nic.mac1609_4 	RXTXLostPackets 	0
scalar RSUScenario.node[12].nic.mac1609_4 	TotalLostPackets 	1963
scalar RSUScenario.node[12].nic.mac1609_4 	DroppedPacketsInMac 	0
scalar RSUScenario.node[12].nic.mac1609_4 	TooLittleTime 	0
scalar RSUScenario.node[12].nic.mac1609_4 	TimesIntoBackoff 	1721
scalar RSUScenario.node[12].nic.mac1609_4 	SlotsBackoff 	2613
scalar RSUScenario.node[12].nic.mac1609_4 	NumInternalContention 	0
scalar RSUScenario.node[12].nic.mac1609_4 	totalBusyTime 	7.073390936227
scalar RSUScenario.node[12].nic.mac1609_4 	throughputMetricMac:last 	144.02105282865
attr source  throughputSignalMac
attr title  "throughputMetricMac, last"
scalar RSUScenario.node[12].nic.mac1609_4 	throughputMetricMac:count 	28797
attr source  throughputSignalMac
attr title  "throughputMetricMac, count"
scalar RSUScenario.node[12].nic.mac1609_4 	throughputMetricMac:sum 	3124125.3642655
attr source  throughputSignalMac
attr title  "throughputMetricMac, sum"
scalar RSUScenario.node[12].nic.mac1609_4 	throughputMetricMac:mean 	108.48787596852
attr source  throughputSignalMac
attr title  "throughputMetricMac, mean"
scalar RSUScenario.node[12].veinsmobility 	startTime 	28
scalar RSUScenario.node[12].veinsmobility 	totalTime 	171.9
scalar RSUScenario.node[12].veinsmobility 	stopTime 	200
scalar RSUScenario.node[12].veinsmobility 	minSpeed 	1.72850631706e-12
scalar RSUScenario.node[12].veinsmobility 	maxSpeed 	27.779703238432
scalar RSUScenario.node[12].veinsmobility 	totalDistance 	2257.8318148317
scalar RSUScenario.node[12].veinsmobility 	totalCO2Emission 	581.96260047518
scalar RSUScenario.node[13].nic.phy80211p 	busyTime 	0.039937919621754
scalar RSUScenario.node[13].nic.mac1609_4 	throughputMetricMac 	141.24494672926
scalar RSUScenario.node[13].nic.mac1609_4 	throughputMbps 	0.14917370845804
scalar RSUScenario.node[13].nic.mac1609_4 	throughputControlMbps 	0
scalar RSUScenario.node[13].nic.mac1609_4 	ReceivedUnicastPackets 	0
scalar RSUScenario.node[13].nic.mac1609_4 	ReceivedBroadcasts 	28242
scalar RSUScenario.node[13].nic.mac1609_4 	SentPackets 	1693
scalar RSUScenario.node[13].nic.mac1609_4 	SNIRLostPackets 	1922
scalar RSUScenario.node[13].nic.mac1609_4 	RXTXLostPackets 	0
scalar RSUScenario.node[13].nic.mac1609_4 	TotalLostPackets 	1922
scalar RSUScenario.node[13].nic.mac1609_4 	DroppedPacketsInMac 	0
scalar RSUScenario.node[13].nic.mac1609_4 	TooLittleTime 	0
scalar RSUScenario.node[13].nic.mac1609_4 	TimesIntoBackoff 	1693
scalar RSUScenario.node[13].nic.mac1609_4 	SlotsBackoff 	2615
scalar RSUScenario.node[13].nic.mac1609_4 	NumInternalContention 	0
scalar RSUScenario.node[13].nic.mac1609_4 	totalBusyTime 	6.923146839972
scalar RSUScenario.node[13].nic.mac1609_4 	throughputMetricMac:last 	141.24494672926
attr source  throughputSignalMac
attr title  "throughputMetricMac, last"
scalar RSUScenario.node[13].nic.mac1609_4 	throughputMetricMac:count 	28242
attr source  throughputSignalMac
attr title  "throughputMetricMac, count"
scalar RSUScenario.node[13].nic.mac1609_4 	throughputMetricMac:sum 	2968431.7670163
attr source  throughputSignalMac
attr title  "throughputMetricMac, sum"
scalar RSUScenario.node[13].nic.mac1609_4 	throughputMetricMac:mean 	105.10699550373
attr source  throughputSignalMac
attr title  "throughputMetricMac, mean"
scalar RSUScenario.node[13].veinsmobility 	startTime 	30.8
scalar RSUScenario.node[13].veinsmobility 	totalTime 	169.1
scalar RSUScenario.node[13].veinsmobility 	stopTime 	200
scalar RSUScenario.node[13].veinsmobility 	minSpeed 	2.8000662478463e-11
scalar RSUScenario.node[13].veinsmobility 	maxSpeed 	27.779008819787
scalar RSUScenario.node[13].veinsmobility 	totalDistance 	2201.2484864343
scalar RSUScenario.node[13].veinsmobility 	totalCO2Emission 	568.04634468203
scalar RSUScenario.node[1].nic.phy80211p 	busyTime 	0.028146369168355
scalar RSUScenario.node[1].nic.mac1609_4 	throughputMetricMac 	120.30709511437
scalar RSUScenario.node[1].nic.mac1609_4 	throughputMbps 	0.12706221796782
scalar RSUScenario.node[1].nic.mac1609_4 	throughputControlMbps 	0
scalar RSUScenario.node[1].nic.mac1609_4 	ReceivedUnicastPackets 	0
scalar RSUScenario.node[1].nic.mac1609_4 	ReceivedBroadcasts 	24054
scalar RSUScenario.node[1].nic.mac1609_4 	SentPackets 	1973
scalar RSUScenario.node[1].nic.mac1609_4 	SNIRLostPackets 	722
scalar RSUScenario.node[1].nic.mac1609_4 	RXTXLostPackets 	0
scalar RSUScenario.node[1].nic.mac1609_4 	TotalLostPackets 	722
scalar RSUScenario.node[1].nic.mac1609_4 	DroppedPacketsInMac 	0
scalar RSUScenario.node[1].nic.mac1609_4 	TooLittleTime 	0
scalar RSUScenario.node[1].nic.mac1609_4 	TimesIntoBackoff 	1973
scalar RSUScenario.node[1].nic.mac1609_4 	SlotsBackoff 	2990
scalar RSUScenario.node[1].nic.mac1609_4 	NumInternalContention 	0
scalar RSUScenario.node[1].nic.mac1609_4 	totalBusyTime 	5.919389
scalar RSUScenario.node[1].nic.mac1609_4 	throughputMetricMac:last 	120.30709511437
attr source  throughputSignalMac
attr title  "throughputMetricMac, last"
scalar RSUScenario.node[1].nic.mac1609_4 	throughputMetricMac:count 	24054
attr source  throughputSignalMac
attr title  "throughputMetricMac, count"
scalar RSUScenario.node[1].nic.mac1609_4 	throughputMetricMac:sum 	2444042.0658332
attr source  throughputSignalMac
attr title  "throughputMetricMac, sum"
scalar RSUScenario.node[1].nic.mac1609_4 	throughputMetricMac:mean 	101.60647151548
attr source  throughputSignalMac
attr title  "throughputMetricMac, mean"
scalar RSUScenario.node[1].veinsmobility 	startTime 	2.8
scalar RSUScenario.node[1].veinsmobility 	totalTime 	197.1
scalar RSUScenario.node[1].veinsmobility 	stopTime 	200
scalar RSUScenario.node[1].veinsmobility 	minSpeed 	9.9252092916552e-12
scalar RSUScenario.node[1].veinsmobility 	maxSpeed 	27.779948902135
scalar RSUScenario.node[1].veinsmobility 	totalDistance 	2839.7068538305
scalar RSUScenario.node[1].veinsmobility 	totalCO2Emission 	674.240457963
scalar RSUScenario.node[2].nic.phy80211p 	busyTime 	0.029883520982599
scalar RSUScenario.node[2].nic.mac1609_4 	throughputMetricMac 	126.70248820918
scalar RSUScenario.node[2].nic.mac1609_4 	throughputMbps 	0.13381687318396
scalar RSUScenario.node[2].nic.mac1609_4 	throughputControlMbps 	0
scalar RSUScenario.node[2].nic.mac1609_4 	ReceivedUnicastPackets 	0
scalar RSUScenario.node[2].nic.mac1609_4 	ReceivedBroadcasts 	25333
scalar RSUScenario.node[2].nic.mac1609_4 	SentPackets 	1955
scalar RSUScenario.node[2].nic.mac1609_4 	SNIRLostPackets 	732
scalar RSUScenario.node[2].nic.mac1609_4 	RXTXLostPackets 	0
scalar RSUScenario.node[2].nic.mac1609_4 	TotalLostPackets 	732
scalar RSUScenario.node[2].nic.mac1609_4 	DroppedPacketsInMac 	0
scalar RSUScenario.node[2].nic.mac1609_4 	TooLittleTime 	0
scalar RSUScenario.node[2].nic.mac1609_4 	TimesIntoBackoff 	1956
scalar RSUScenario.node[2].nic.mac1609_4 	SlotsBackoff 	2911
scalar RSUScenario.node[2].nic.mac1609_4 	NumInternalContention 	0
scalar RSUScenario.node[2].nic.mac1609_4 	totalBusyTime 	6.203891
scalar RSUScenario.node[2].nic.mac1609_4 	throughputMetricMac:last 	126.70248820918
attr source  throughputSignalMac
attr title  "throughputMetricMac, last"
scalar RSUScenario.node[2].nic.mac1609_4 	throughputMetricMac:count 	25333
attr source  throughputSignalMac
attr title  "throughputMetricMac, count"
scalar RSUScenario.node[2].nic.mac1609_4 	throughputMetricMac:sum 	2655259.7330426
attr source  throughputSignalMac
attr title  "throughputMetricMac, sum"
scalar RSUScenario.node[2].nic.mac1609_4 	throughputMetricMac:mean 	104.81426333409
attr source  throughputSignalMac
attr title  "throughputMetricMac, mean"
scalar RSUScenario.node[2].veinsmobility 	startTime 	4.6
scalar RSUScenario.node[2].veinsmobility 	totalTime 	195.3
scalar RSUScenario.node[2].veinsmobility 	stopTime 	200
scalar RSUScenario.node[2].veinsmobility 	minSpeed 	3.0170843601e-10
scalar RSUScenario.node[2].veinsmobility 	maxSpeed 	27.779536658977
scalar RSUScenario.node[2].veinsmobility 	totalDistance 	2783.3705569063
scalar RSUScenario.node[2].veinsmobility 	totalCO2Emission 	664.13753911547
scalar RSUScenario.node[3].nic.phy80211p 	busyTime 	0.031284667010842
scalar RSUScenario.node[3].nic.mac1609_4 	throughputMetricMac 	132.1827036445
scalar RSUScenario.node[3].nic.mac1609_4 	throughputMbps 	0.13960285948324
scalar RSUScenario.node[3].nic.mac1609_4 	throughputControlMbps 	0
scalar RSUScenario.node[3].nic.mac1609_4 	ReceivedUnicastPackets 	0
scalar RSUScenario.node[3].nic.mac1609_4 	ReceivedBroadcasts 	26430
scalar RSUScenario.node[3].nic.mac1609_4 	SentPackets 	1938
scalar RSUScenario.node[3].nic.mac1609_4 	SNIRLostPackets 	620
scalar RSUScenario.node[3].nic.mac1609_4 	RXTXLostPackets 	0
scalar RSUScenario.node[3].nic.mac1609_4 	TotalLostPackets 	620
scalar RSUScenario.node[3].nic.mac1609_4 	DroppedPacketsInMac 	0
scalar RSUScenario.node[3].nic.mac1609_4 	TooLittleTime 	0
scalar RSUScenario.node[3].nic.mac1609_4 	TimesIntoBackoff 	1938
scalar RSUScenario.node[3].nic.mac1609_4 	SlotsBackoff 	2829
scalar RSUScenario.node[3].nic.mac1609_4 	NumInternalContention 	0
scalar RSUScenario.node[3].nic.mac1609_4 	totalBusyTime 	6.420666
scalar RSUScenario.node[3].nic.mac1609_4 	throughputMetricMac:last 	132.1827036445
attr source  throughputSignalMac
attr title  "throughputMetricMac, last"
scalar RSUScenario.node[3].nic.mac1609_4 	throughputMetricMac:count 	26430
attr source  throughputSignalMac
attr title  "throughputMetricMac, count"
scalar RSUScenario.node[3].nic.mac1609_4 	throughputMetricMac:sum 	2846855.5283736
attr source  throughputSignalMac
attr title  "throughputMetricMac, sum"
scalar RSUScenario.node[3].nic.mac1609_4 	throughputMetricMac:mean 	107.71303550411
attr source  throughputSignalMac
attr title  "throughputMetricMac, mean"
scalar RSUScenario.node[3].veinsmobility 	startTime 	6.3
scalar RSUScenario.node[3].veinsmobility 	totalTime 	193.6
scalar RSUScenario.node[3].veinsmobility 	stopTime 	200
scalar RSUScenario.node[3].veinsmobility 	minSpeed 	4.6712660822857e-09
scalar RSUScenario.node[3].veinsmobility 	maxSpeed 	27.778777530561
scalar RSUScenario.node[3].veinsmobility 	totalDistance 	2730.7313286397
scalar RSUScenario.node[3].veinsmobility 	totalCO2Emission 	652.09986489073
scalar RSUScenario.node[4].nic.phy80211p 	busyTime 	0.032511333333335
scalar RSUScenario.node[4].nic.mac1609_4 	throughputMetricMac 	137.55403269636
scalar RSUScenario.node[4].nic.mac1609_4 	throughputMbps 	0.14527498296201
scalar RSUScenario.node[4].nic.mac1609_4 	throughputControlMbps 	0
scalar RSUScenario.node[4].nic.mac1609_4 	ReceivedUnicastPackets 	0
scalar RSUScenario.node[4].nic.mac1609_4 	ReceivedBroadcasts 	27504
scalar RSUScenario.node[4].nic.mac1609_4 	SentPackets 	1921
scalar RSUScenario.node[4].nic.mac1609_4 	SNIRLostPackets 	360
scalar RSUScenario.node[4].nic.mac1609_4 	RXTXLostPackets 	0
scalar RSUScenario.node[4].nic.mac1609_4 	TotalLostPackets 	360
scalar RSUScenario.node[4].nic.mac1609_4 	DroppedPacketsInMac 	0
scalar RSUScenario.node[4].nic.mac1609_4 	TooLittleTime 	0
scalar RSUScenario.node[4].nic.mac1609_4 	TimesIntoBackoff 	1921
scalar RSUScenario.node[4].nic.mac1609_4 	SlotsBackoff 	2812
scalar RSUScenario.node[4].nic.mac1609_4 	NumInternalContention 	0
scalar RSUScenario.node[4].nic.mac1609_4 	totalBusyTime 	6.599177010238
scalar RSUScenario.node[4].nic.mac1609_4 	throughputMetricMac:last 	137.55403269636
attr source  throughputSignalMac
attr title  "throughputMetricMac, last"
scalar RSUScenario.node[4].nic.mac1609_4 	throughputMetricMac:count 	27504
attr source  throughputSignalMac
attr title  "throughputMetricMac, count"
scalar RSUScenario.node[4].nic.mac1609_4 	throughputMetricMac:sum 	3046966.2366788
attr source  throughputSignalMac
attr title  "throughputMetricMac, sum"
scalar RSUScenario.node[4].nic.mac1609_4 	throughputMetricMac:mean 	110.78265840164
attr source  throughputSignalMac
attr title  "throughputMetricMac, mean"
scalar RSUScenario.node[4].veinsmobility 	startTime 	8
scalar RSUScenario.node[4].veinsmobility 	totalTime 	191.9
scalar RSUScenario.node[4].veinsmobility 	stopTime 	200
scalar RSUScenario.node[4].veinsmobility 	minSpeed 	4.4484911737197e-08
scalar RSUScenario.node[4].veinsmobility 	maxSpeed 	27.779831413899
scalar RSUScenario.node[4].veinsmobility 	totalDistance 	2678.4738921104
scalar RSUScenario.node[4].veinsmobility 	totalCO2Emission 	641.81799332788
scalar RSUScenario.rsu[0].nic.phy80211p 	busyTime 	0.037902720000008
scalar RSUScenario.rsu[0].nic.mac1609_4 	ReceivedUnicastPackets 	0
scalar RSUScenario.rsu[0].nic.mac1609_4 	ReceivedBroadcasts 	32455
scalar RSUScenario.rsu[0].nic.mac1609_4 	SentPackets 	1
scalar RSUScenario.rsu[0].nic.mac1609_4 	SNIRLostPackets 	1381
scalar RSUScenario.rsu[0].nic.mac1609_4 	RXTXLostPackets 	0
scalar RSUScenario.rsu[0].nic.mac1609_4 	TotalLostPackets 	1381
scalar RSUScenario.rsu[0].nic.mac1609_4 	DroppedPacketsInMac 	0
scalar RSUScenario.rsu[0].nic.mac1609_4 	TooLittleTime 	0
scalar RSUScenario.rsu[0].nic.mac1609_4 	TimesIntoBackoff 	1
scalar RSUScenario.rsu[0].nic.mac1609_4 	SlotsBackoff 	5
scalar RSUScenario.rsu[0].nic.mac1609_4 	NumInternalContention 	0
scalar RSUScenario.rsu[0].nic.mac1609_4 	totalBusyTime 	7.426209
scalar RSUScenario.metricsApplication.metrics 	packetsDeliveredToMetrics 	200
scalar RSUScenario.metricsApplication.metrics 	throughputMetric 	1.0050251256281
scalar RSUScenario.metricsApplication.metrics 	throughputMetric:last 	1.0050251256281
attr source  throughputSignal
attr title  "throughputMetric, last"
scalar RSUScenario.metricsApplication.metrics 	throughputMetric:count 	200
attr source  throughputSignal
attr title  "throughputMetric, count"
scalar RSUScenario.metricsApplication.metrics 	throughputMetric:sum 	204.87303094812
attr source  throughputSignal
attr title  "throughputMetric, sum"
scalar RSUScenario.metricsApplication.metrics 	throughputMetric:mean 	1.0243651547406
attr source  throughputSignal
attr title  "throughputMetric, mean"
scalar RSUScenario.metricsApplication.nic.phy80211p 	busyTime 	0.037902720000008
scalar RSUScenario.metricsApplication.nic.mac1609_4 	ReceivedUnicastPackets 	0
scalar RSUScenario.metricsApplication.nic.mac1609_4 	ReceivedBroadcasts 	32457
scalar RSUScenario.metricsApplication.nic.mac1609_4 	SentPackets 	1
scalar RSUScenario.metricsApplication.nic.mac1609_4 	SNIRLostPackets 	1379
scalar RSUScenario.metricsApplication.nic.mac1609_4 	RXTXLostPackets 	0
scalar RSUScenario.metricsApplication.nic.mac1609_4 	TotalLostPackets 	1379
scalar RSUScenario.metricsApplication.nic.mac1609_4 	DroppedPacketsInMac 	0
scalar RSUScenario.metricsApplication.nic.mac1609_4 	TooLittleTime 	0
scalar RSUScenario.metricsApplication.nic.mac1609_4 	TimesIntoBackoff 	1
scalar RSUScenario.metricsApplication.nic.mac1609_4 	SlotsBackoff 	2
scalar RSUScenario.metricsApplication.nic.mac1609_4 	NumInternalContention 	0
scalar RSUScenario.metricsApplication.nic.mac1609_4 	totalBusyTime 	7.426209
