version 2
run SingleCH_Safety_B_100Bytes_Q_100-0-20161115-13:15:04-4450
attr configname SingleCH_Safety_B_100Bytes_Q_100
attr datetime 20161115-13:15:04
attr experiment SingleCH_Safety_B_100Bytes_Q_100
attr inifile omnetpp.ini
attr iterationvars $0=1
attr iterationvars2 "$0=1, $repetition=0"
attr measurement $0=1
attr network RSUScenario
attr processid 4450
attr repetition 0
attr replication #0
attr resultdir results
attr runnumber 0
attr seedset 0
param **.coreDebug false
param **.debug true
param *.**.nic.mac1609_4.bitrate 6Mbps
param *.**.nic.mac1609_4.queueSize ${1,2,5}
param *.**.nic.mac1609_4.txPower 100mW
param *.**.nic.mac1609_4.useServiceChannel false
param *.**.nic.phy80211p.analogueModels "xmldoc(\"config.xml\")"
param *.**.nic.phy80211p.decider "xmldoc(\"config.xml\")"
param *.**.nic.phy80211p.maxTXPower 100mW
param *.**.nic.phy80211p.sensitivity -89dBm
param *.**.nic.phy80211p.thermalNoise -110dBm
param *.**.nic.phy80211p.usePropagationDelay true
param *.**.nic.phy80211p.useThermalNoise true
param *.annotations.draw false
param *.connectionManager.alpha 2.0
param *.connectionManager.carrierFrequency "5.890e9 Hz"
param *.connectionManager.pMax 100mW
param *.connectionManager.sat -89dBm
param *.connectionManager.sendDirect true
param *.manager.autoShutdown true
param *.manager.host "\"localhost\""
param *.manager.launchConfig "xmldoc(\"erlangen.launchd.xml\")"
param *.manager.margin 25
param *.manager.moduleDisplayString "\"\""
param *.manager.moduleName "\"node\""
param *.manager.moduleType "\"vanets.src.CarWithMetrics\""
param *.manager.numVehicles 5
param *.manager.port 9999
param *.manager.updateInterval 0.1s
param *.metricsApplicaiton[*].appl.sendBeacons false
param *.metricsApplication.appl.beaconInterval 1s
param *.metricsApplication.appl.beaconLengthBits 800bit
param *.metricsApplication.appl.beaconPriority 3
param *.metricsApplication.appl.dataOnSch false
param *.metricsApplication.appl.dataPriority 2
param *.metricsApplication.appl.debug false
param *.metricsApplication.appl.headerLength "256 bit"
param *.metricsApplication.appl.maxOffset 0.005s
param *.metricsApplication.appl.sendBeacons false
param *.metricsApplication.appl.sendData true
param *.metricsApplication.applType "\"TraCIDemoRSU11p\""
param *.metricsApplication.mobility.x 2000
param *.metricsApplication.mobility.y 2000
param *.metricsApplication.mobility.z 3
param *.metricsApplication[*].appl.beaconInterval 0.1s
param *.metricsApplication[*].appl.beaconPriority 3
param *.metricsApplication[*].appl.dataOnSch false
param *.metricsApplication[*].appl.sendData false
param *.node[*0].veinsmobility.accidentCount 1
param *.node[*0].veinsmobility.accidentDuration 30s
param *.node[*0].veinsmobility.accidentStart 10s
param *.node[*].appl.beaconInterval 1s
param *.node[*].appl.beaconLengthBits 800bit
param *.node[*].appl.beaconPriority 3
param *.node[*].appl.dataOnSch false
param *.node[*].appl.dataPriority 2
param *.node[*].appl.debug false
param *.node[*].appl.headerLength "256 bit"
param *.node[*].appl.maxOffset 0.005s
param *.node[*].appl.sendBeacons false
param *.node[*].appl.sendData true
param *.node[*].applType "\"TraCIDemo11p\""
param *.node[*].mobilityType "\"TraCIMobility\""
param *.node[*].mobilityType.debug true
param *.node[*].veinsmobility.x 0
param *.node[*].veinsmobility.y 0
param *.node[*].veinsmobility.z 1.895
param *.node[*].veinsmobilityType "\"org.car2x.veins.modules.mobility.traci.TraCIMobility\""
param *.node[*].veinsmobilityType.debug true
param *.obstacles.debug false
param *.obstacles.obstacles "xmldoc(\"config.xml\", \"//AnalogueModel[@type='SimpleObstacleShadowing']/obstacles\")"
param *.playgroundSizeX 2500m
param *.playgroundSizeY 2500m
param *.playgroundSizeZ 50m
param *.rsu[*].appl.beaconInterval 1s
param *.rsu[*].appl.beaconLengthBits 800bit
param *.rsu[*].appl.beaconPriority 3
param *.rsu[*].appl.dataOnSch false
param *.rsu[*].appl.dataPriority 2
param *.rsu[*].appl.debug false
param *.rsu[*].appl.headerLength "256 bit"
param *.rsu[*].appl.maxOffset 0.005s
param *.rsu[*].appl.sendBeacons false
param *.rsu[*].appl.sendData true
param *.rsu[*].applType "\"TraCIDemoRSU11p\""
param *.rsu[0].mobility.x 2000
param *.rsu[0].mobility.y 2000
param *.rsu[0].mobility.z 3
param *.world.use2D false
param *.world.useTorus false

vector 6  RSUScenario.node[0].veinsmobility  posx  ETV
vector 7  RSUScenario.node[0].veinsmobility  posy  ETV
vector 8  RSUScenario.node[0].veinsmobility  speed  ETV
vector 9  RSUScenario.node[0].veinsmobility  acceleration  ETV
vector 10  RSUScenario.node[0].veinsmobility  co2emission  ETV
vector 13  RSUScenario.node[1].veinsmobility  posx  ETV
vector 14  RSUScenario.node[1].veinsmobility  posy  ETV
vector 15  RSUScenario.node[1].veinsmobility  speed  ETV
vector 16  RSUScenario.node[1].veinsmobility  acceleration  ETV
vector 17  RSUScenario.node[1].veinsmobility  co2emission  ETV
vector 20  RSUScenario.node[2].veinsmobility  posx  ETV
vector 21  RSUScenario.node[2].veinsmobility  posy  ETV
vector 22  RSUScenario.node[2].veinsmobility  speed  ETV
vector 23  RSUScenario.node[2].veinsmobility  acceleration  ETV
vector 24  RSUScenario.node[2].veinsmobility  co2emission  ETV
vector 27  RSUScenario.node[3].veinsmobility  posx  ETV
vector 28  RSUScenario.node[3].veinsmobility  posy  ETV
vector 29  RSUScenario.node[3].veinsmobility  speed  ETV
vector 30  RSUScenario.node[3].veinsmobility  acceleration  ETV
vector 31  RSUScenario.node[3].veinsmobility  co2emission  ETV
vector 34  RSUScenario.node[4].veinsmobility  posx  ETV
vector 35  RSUScenario.node[4].veinsmobility  posy  ETV
vector 36  RSUScenario.node[4].veinsmobility  speed  ETV
vector 37  RSUScenario.node[4].veinsmobility  acceleration  ETV
vector 38  RSUScenario.node[4].veinsmobility  co2emission  ETV
vector 41  RSUScenario.node[5].veinsmobility  posx  ETV
vector 42  RSUScenario.node[5].veinsmobility  posy  ETV
vector 43  RSUScenario.node[5].veinsmobility  speed  ETV
vector 44  RSUScenario.node[5].veinsmobility  acceleration  ETV
vector 45  RSUScenario.node[5].veinsmobility  co2emission  ETV
vector 48  RSUScenario.node[6].veinsmobility  posx  ETV
vector 49  RSUScenario.node[6].veinsmobility  posy  ETV
vector 50  RSUScenario.node[6].veinsmobility  speed  ETV
vector 51  RSUScenario.node[6].veinsmobility  acceleration  ETV
vector 52  RSUScenario.node[6].veinsmobility  co2emission  ETV
vector 55  RSUScenario.node[7].veinsmobility  posx  ETV
vector 56  RSUScenario.node[7].veinsmobility  posy  ETV
vector 57  RSUScenario.node[7].veinsmobility  speed  ETV
vector 58  RSUScenario.node[7].veinsmobility  acceleration  ETV
vector 59  RSUScenario.node[7].veinsmobility  co2emission  ETV
vector 62  RSUScenario.node[8].veinsmobility  posx  ETV
vector 63  RSUScenario.node[8].veinsmobility  posy  ETV
vector 64  RSUScenario.node[8].veinsmobility  speed  ETV
vector 65  RSUScenario.node[8].veinsmobility  acceleration  ETV
vector 66  RSUScenario.node[8].veinsmobility  co2emission  ETV
vector 69  RSUScenario.node[9].veinsmobility  posx  ETV
vector 70  RSUScenario.node[9].veinsmobility  posy  ETV
vector 71  RSUScenario.node[9].veinsmobility  speed  ETV
vector 72  RSUScenario.node[9].veinsmobility  acceleration  ETV
vector 73  RSUScenario.node[9].veinsmobility  co2emission  ETV
vector 76  RSUScenario.node[10].veinsmobility  posx  ETV
vector 77  RSUScenario.node[10].veinsmobility  posy  ETV
vector 78  RSUScenario.node[10].veinsmobility  speed  ETV
vector 79  RSUScenario.node[10].veinsmobility  acceleration  ETV
vector 80  RSUScenario.node[10].veinsmobility  co2emission  ETV
vector 83  RSUScenario.node[11].veinsmobility  posx  ETV
vector 84  RSUScenario.node[11].veinsmobility  posy  ETV
vector 85  RSUScenario.node[11].veinsmobility  speed  ETV
vector 86  RSUScenario.node[11].veinsmobility  acceleration  ETV
vector 87  RSUScenario.node[11].veinsmobility  co2emission  ETV
vector 90  RSUScenario.node[12].veinsmobility  posx  ETV
vector 91  RSUScenario.node[12].veinsmobility  posy  ETV
vector 92  RSUScenario.node[12].veinsmobility  speed  ETV
vector 93  RSUScenario.node[12].veinsmobility  acceleration  ETV
vector 94  RSUScenario.node[12].veinsmobility  co2emission  ETV
vector 97  RSUScenario.node[13].veinsmobility  posx  ETV
vector 98  RSUScenario.node[13].veinsmobility  posy  ETV
vector 99  RSUScenario.node[13].veinsmobility  speed  ETV
vector 100  RSUScenario.node[13].veinsmobility  acceleration  ETV
vector 101  RSUScenario.node[13].veinsmobility  co2emission  ETV
vector 104  RSUScenario.node[14].veinsmobility  posx  ETV
vector 105  RSUScenario.node[14].veinsmobility  posy  ETV
vector 106  RSUScenario.node[14].veinsmobility  speed  ETV
vector 107  RSUScenario.node[14].veinsmobility  acceleration  ETV
vector 108  RSUScenario.node[14].veinsmobility  co2emission  ETV
vector 111  RSUScenario.node[15].veinsmobility  posx  ETV
vector 112  RSUScenario.node[15].veinsmobility  posy  ETV
vector 113  RSUScenario.node[15].veinsmobility  speed  ETV
vector 114  RSUScenario.node[15].veinsmobility  acceleration  ETV
vector 115  RSUScenario.node[15].veinsmobility  co2emission  ETV
vector 118  RSUScenario.node[16].veinsmobility  posx  ETV
vector 119  RSUScenario.node[16].veinsmobility  posy  ETV
vector 120  RSUScenario.node[16].veinsmobility  speed  ETV
vector 121  RSUScenario.node[16].veinsmobility  acceleration  ETV
vector 122  RSUScenario.node[16].veinsmobility  co2emission  ETV
vector 125  RSUScenario.node[17].veinsmobility  posx  ETV
vector 126  RSUScenario.node[17].veinsmobility  posy  ETV
vector 127  RSUScenario.node[17].veinsmobility  speed  ETV
vector 128  RSUScenario.node[17].veinsmobility  acceleration  ETV
vector 129  RSUScenario.node[17].veinsmobility  co2emission  ETV
vector 132  RSUScenario.node[18].veinsmobility  posx  ETV
vector 133  RSUScenario.node[18].veinsmobility  posy  ETV
vector 134  RSUScenario.node[18].veinsmobility  speed  ETV
vector 135  RSUScenario.node[18].veinsmobility  acceleration  ETV
vector 136  RSUScenario.node[18].veinsmobility  co2emission  ETV
vector 139  RSUScenario.node[19].veinsmobility  posx  ETV
vector 140  RSUScenario.node[19].veinsmobility  posy  ETV
vector 141  RSUScenario.node[19].veinsmobility  speed  ETV
vector 142  RSUScenario.node[19].veinsmobility  acceleration  ETV
vector 143  RSUScenario.node[19].veinsmobility  co2emission  ETV
vector 146  RSUScenario.node[20].veinsmobility  posx  ETV
vector 147  RSUScenario.node[20].veinsmobility  posy  ETV
vector 148  RSUScenario.node[20].veinsmobility  speed  ETV
vector 149  RSUScenario.node[20].veinsmobility  acceleration  ETV
vector 150  RSUScenario.node[20].veinsmobility  co2emission  ETV
vector 153  RSUScenario.node[21].veinsmobility  posx  ETV
vector 154  RSUScenario.node[21].veinsmobility  posy  ETV
vector 155  RSUScenario.node[21].veinsmobility  speed  ETV
vector 156  RSUScenario.node[21].veinsmobility  acceleration  ETV
vector 157  RSUScenario.node[21].veinsmobility  co2emission  ETV
17	358	1.4	1.4500716958325
17	413	1.5	1.3158122491909
17	468	1.6	1.3082333668257
17	523	1.7	0.973
17	578	1.8	1.2349347762468
17	633	1.9	1.1664823434091
17	690	2	0.973
17	745	2.1	1.3749405508883
17	800	2.2	1.1732278842916
17	855	2.3	1.1927164652387
17	910	2.4	0.973
17	965	2.5	1.1867800584743
17	1020	2.6	1.153879427886
17	1075	2.7	1.149924735861
17	1130	2.8	1.2145896921385
17	1185	2.9	1.2523658534272
17	1242	3	0.973
17	1297	3.1	1.3298750264086
17	1352	3.2	0.973
17	1407	3.3	1.2913598304254
17	1462	3.4	0.973
17	1517	3.5	1.2711989456833
17	1572	3.6	1.2002417846836
17	1627	3.7	1.2107816218668
17	1682	3.8	0.973
17	1737	3.9	1.2479537197684
17	1794	4	1.1499646648471
17	1849	4.1	1.3048264029855
17	1904	4.2	0.973
17	1959	4.3	1.1764232331442
17	2014	4.4	1.1740686201484
17	2069	4.5	0.973
17	2124	4.6	1.2337474040417
17	2179	4.7	1.2496035428317
17	2234	4.8	1.1581411847589
17	2289	4.9	0.973
17	2346	5	1.324759762243
17	2401	5.1	0.973
17	2456	5.2	1.1741071282569
17	2511	5.3	1.2823941067515
17	2566	5.4	1.1956229671801
17	2621	5.5	0.973
17	2676	5.6	1.16499685185
17	2731	5.7	0.973
17	2786	5.8	1.2056802326076
17	2841	5.9	0.973
17	2898	6	1.3818743243363
17	2953	6.1	1.1519667787344
17	3008	6.2	1.1876688100205
17	3063	6.3	0.973
17	3118	6.4	1.268148488022
17	3173	6.5	0.973
17	3228	6.6	1.2273657027161
17	3283	6.7	1.1964151137758
17	3338	6.8	1.1881069148962
17	3438	6.9	0.973
17	3540	7	1.1473539283047
17	3640	7.1	1.2694580305724
17	3740	7.2	1.2596995234408
17	3840	7.3	0.973
17	3940	7.4	1.1443230387851
17	4040	7.5	1.2899078059348
17	4140	7.6	1.2727768370142
17	4240	7.7	0.973
17	4397	7.8	1.2433891062335
17	4554	7.9	1.194809087879
17	4713	8	0.973
17	4870	8.1	0.973
17	5027	8.2	1.2550788988328
17	5184	8.3	1.1882595639177
17	5341	8.4	0.973
17	5498	8.5	1.3237949535935
17	5655	8.6	0.973
17	5812	8.7	1.1746117759139
17	5969	8.8	1.2769544486063
17	6126	8.9	1.2303745370782
17	6354	9	1.1810199865234
17	6580	9.1	0.973
17	6806	9.2	1.1700102277427
17	7032	9.3	1.2168233249008
17	7258	9.4	1.1507384443176
17	7484	9.5	1.1705221178006
17	7710	9.6	1.2413413161946
17	7936	9.7	0.973
17	8162	9.8	1.1736323217168
17	8388	9.9	0.973
17	8616	10	1.25112478525
17	8843	10.1	1.2488540055033
17	9069	10.2	1.1572794855342
17	9295	10.3	1.2340420562102
17	9521	10.4	0.973
17	9747	10.5	0.973
17	9973	10.6	1.2757896680911
17	10199	10.7	0.973
17	10425	10.8	1.1525467590982
17	10651	10.9	0.973
17	10879	11	1.1918442692869
17	11105	11.1	1.333164329934
17	11331	11.2	0.973
17	11557	11.3	1.2227339133615
17	11783	11.4	0.973
17	12009	11.5	1.2331731770866
17	12235	11.6	1.3410286754132
17	12461	11.7	0.973
17	12687	11.8	1.1807993514699
17	12913	11.9	1.2086507850973
17	13141	12	0.973
17	13367	12.1	0.973
17	13593	12.2	1.2068526392871
17	13819	12.3	1.221888674175
17	14045	12.4	1.2474299271569
17	14271	12.5	0.973
17	14497	12.6	1.1834317984629
17	14723	12.7	1.2613720629836
17	14949	12.8	0.973
17	15175	12.9	1.2217682729002
17	15403	13	0.973
17	15629	13.1	1.2010739740701
17	15855	13.2	0.973
17	16081	13.3	1.2667886055304
17	16307	13.4	0.973
17	16533	13.5	1.1866031454692
17	16759	13.6	1.2761641344691
17	16985	13.7	0.973
17	17211	13.8	1.1446404980802
17	17437	13.9	1.2327595325957
17	17665	14	0.973
17	17891	14.1	1.2832958812819
17	18117	14.2	0.973
17	18343	14.3	1.2574799584294
17	18569	14.4	1.2608039029561
17	18795	14.5	0.973
17	19021	14.6	0.973
17	19247	14.7	1.241206640006
17	19473	14.8	0.973
17	19699	14.9	1.2966661091294
17	19927	15	1.1903256255355
17	20153	15.1	0.973
17	20379	15.2	1.3024777146467
17	20605	15.3	0.973
17	20831	15.4	1.2444504509963
17	21057	15.5	1.240013451319
17	21283	15.6	0.973
17	21509	15.7	1.2309086826024
17	21735	15.8	1.1766279294991
17	21961	15.9	1.2314690011916
17	22189	16	0.973
17	22415	16.1	1.1923199870604
17	22641	16.2	1.2437984192979
17	22867	16.3	1.1481829605051
17	23174	16.4	0.973
17	23481	16.5	1.1990199545766
17	23788	16.6	1.2539676267774
17	24095	16.7	1.1780211231277
17	24402	16.8	1.1747362930211
17	24709	16.9	0.973
17	25018	17	1.2645951320821
17	25325	17.1	0.973
17	25632	17.2	1.3891045966705
17	25939	17.3	0.973
17	26246	17.4	1.1906588569248
17	26553	17.5	1.1701658235221
17	26860	17.6	1.3079719799737
17	27167	17.7	0.973
17	27474	17.8	1.1861885468043
17	27781	17.9	0.973
17	28090	18	1.2125119570055
17	28397	18.1	1.1701537506991
17	28704	18.2	1.3332662753669
17	29011	18.3	0.973
17	29318	18.4	1.240971699866
17	29625	18.5	1.1761398201744
17	29932	18.6	1.1786154083663
17	30239	18.7	1.2494386587715
17	30546	18.8	0.973
17	30853	18.9	1.2641803926463
17	31162	19	1.1925781718263
17	31469	19.1	0.973
17	31776	19.2	1.2609021537488
17	32083	19.3	0.973
17	32390	19.4	1.1633133769681
17	32697	19.5	1.2991623000806
17	33004	19.6	0.973
17	33311	19.7	0.973
17	33618	19.8	1.3570389775483
17	33925	19.9	0.973
17	34234	20	1.2244197763278
17	34541	20.1	1.3173053276599
17	34848	20.2	0.973
17	35155	20.3	1.1416177906036
17	35462	20.4	1.3130412646545
17	35769	20.5	1.143105825184
17	36076	20.6	0.973
17	36383	20.7	1.2886719599349
17	36690	20.8	0.973
17	36997	20.9	1.2066289442651
17	37306	21	1.161227438737
17	37613	21.1	0.973
17	37920	21.2	0.973
17	38227	21.3	1.2719794236731
17	38534	21.4	0.973
17	38841	21.5	1.1814569372963
17	39148	21.6	1.14159839643
17	39455	21.7	1.2262838070509
17	39762	21.8	1.28684790735
17	40069	21.9	0.973
17	40378	22	1.3301615157908
17	40685	22.1	1.1463935116002
17	40992	22.2	1.2333232868292
17	41299	22.3	0.973
17	41606	22.4	0.973
17	41913	22.5	1.1541596815083
17	42220	22.6	1.2500799774879
17	42527	22.7	1.1835747889737
17	42834	22.8	1.2622961441333
17	43541	22.9	0.973
17	43943	23	1.2351693809686
17	44343	23.1	1.1907043303063
17	44743	23.2	0.973
17	45143	23.3	1.3063165717193
17	45543	23.4	0.973
17	45943	23.5	1.3271599200157
17	46343	23.6	0.973
17	46743	23.7	1.310864953133
17	47143	23.8	0.973
17	47599	23.9	1.1503818911047
17	48001	24	1.171338801281
17	48401	24.1	1.2579463040063
17	48801	24.2	0.973
17	49201	24.3	1.2627323592191
17	49601	24.4	0.973
17	50001	24.5	1.3595339061306
17	50401	24.6	0.973
17	50801	24.7	1.2031174959378
17	51201	24.8	1.1599580000663
17	51601	24.9	1.2523016526581
17	52003	25	0.973
17	52403	25.1	1.3519005242122
17	52803	25.2	0.973
17	53203	25.3	1.1761459444197
17	53603	25.4	1.3503185960978
17	54003	25.5	0.973
17	54403	25.6	1.3309773105991
17	54803	25.7	0.973
17	55203	25.8	1.3476091968833
17	55603	25.9	0.973
17	56005	26	1.2159920436384
17	56405	26.1	0.973
17	56805	26.2	1.3082471803021
17	57205	26.3	1.1628127145147
17	57605	26.4	1.1957461357666
17	58005	26.5	0.973
17	58405	26.6	1.1860254983539
17	58805	26.7	0.973
17	59205	26.8	1.2465873322297
17	59605	26.9	0.973
17	60007	27	1.2484810161455
17	60407	27.1	1.1539749257264
17	60807	27.2	1.174498094679
17	61207	27.3	1.2305521782335
17	61607	27.4	1.2211661365228
17	62007	27.5	0.973
17	62407	27.6	1.1896182541089
17	62807	27.7	1.2029385914774
17	63207	27.8	1.1836156470502
17	63607	27.9	0.973
17	64009	28	1.2617943349276
17	64409	28.1	0.973
17	64809	28.2	1.3192997268026
17	65209	28.3	0.973
17	65609	28.4	1.2533043355638
17	66009	28.5	0.973
17	66409	28.6	0.973
17	66809	28.7	1.3636054958862
17	67209	28.8	1.1641633307725
17	67609	28.9	1.1727201656017
17	68011	29	0.973
17	68411	29.1	1.3485046299891
17	68811	29.2	0.973
17	69211	29.3	1.3239822800083
17	69611	29.4	1.1631491790543
17	70011	29.5	1.1725865493749
17	70516	29.6	0.973
17	71021	29.7	1.3125787165333
17	71526	29.8	1.2092852416587
17	72031	29.9	0.973
17	72538	30	1.2237896367577
17	73043	30.1	1.2516154505173
17	73548	30.2	0.973
17	74053	30.3	1.1982182053995
17	74558	30.4	1.1884981760843
17	75063	30.5	1.1485746563543
17	75568	30.6	1.1444042009844
17	76073	30.7	1.3718973428119
17	76578	30.8	0.973
17	77083	30.9	0.973
17	77590	31	1.2231053477668
17	78095	31.1	1.1610459188254
17	78600	31.2	1.3010161806685
17	79105	31.3	1.1544195364153
17	79610	31.4	0.973
17	80115	31.5	1.1530156346674
17	80620	31.6	1.1982056637351
17	81125	31.7	1.1970743649561
17	81630	31.8	0.973
17	82135	31.9	1.2636849090106
17	82642	32	1.2134390126539
17	83147	32.1	1.2085900678477
17	83652	32.2	1.145324098001
17	84157	32.3	1.2226809962122
17	84662	32.4	1.1954146257685
17	85167	32.5	0.973
17	85672	32.6	0.973
17	86177	32.7	1.1839800467946
17	86682	32.8	0.973
17	87187	32.9	1.1582970892019
17	87694	33	1.2991507465938
17	88199	33.1	0.973
17	88704	33.2	1.2149335764813
17	89209	33.3	1.147930460533
17	89714	33.4	1.1854811109461
17	90219	33.5	0.973
17	90724	33.6	1.1636112069657
17	91229	33.7	1.2933212390101
17	91734	33.8	0.973
17	92239	33.9	1.1416493134629
17	92746	34	1.2459361289472
17	93251	34.1	1.2206083292821
17	93756	34.2	0.973
17	94261	34.3	1.2437561033199
17	94766	34.4	0.973
17	95271	34.5	1.309649483897
17	95776	34.6	0.973
17	96281	34.7	0.973
17	96786	34.8	1.2711286222522
17	97291	34.9	0.973
17	97798	35	1.2898165090294
17	98303	35.1	0.973
17	98808	35.2	0.973
17	99313	35.3	1.3234604921534
17	99818	35.4	0.973
17	100323	35.5	0.973
17	100828	35.6	1.1760255860878
17	101333	35.7	1.16284826821
17	101838	35.8	1.1677031729077
17	102343	35.9	0.973
17	102850	36	1.188066120254
17	103355	36.1	1.298202692999
17	103977	36.2	0.973
17	104599	36.3	1.1982972408831
17	105221	36.4	1.1964059102781
17	105843	36.5	1.2462597166983
17	106465	36.6	1.2241487308552
17	107087	36.7	0.973
17	107709	36.8	1.1795455059126
17	108331	36.9	0.973
17	108955	37	1.3909484550663
17	109577	37.1	0.973
17	110199	37.2	1.2591452554512
17	110821	37.3	1.1866394847465
17	111443	37.4	1.2030780184408
17	112065	37.5	0.973
17	112687	37.6	0.973
17	113309	37.7	1.1998289382771
17	113931	37.8	1.2613323786114
17	114553	37.9	0.973
17	115177	38	1.2532782776588
17	115799	38.1	1.2864012966003
17	116421	38.2	0.973
17	117043	38.3	1.2617782983648
17	117665	38.4	0.973
17	118287	38.5	1.1713961008916
17	118909	38.6	1.1499765712928
17	119531	38.7	1.2969606476221
17	120153	38.8	1.1844807646561
17	120775	38.9	0.973
17	121399	39	0.973
17	122021	39.1	1.2674344224264
17	122643	39.2	1.1981149565091
17	123265	39.3	1.2560652815238
17	123887	39.4	0.973
17	124509	39.5	0.973
17	125131	39.6	1.2403905713484
17	125753	39.7	1.2714267911092
17	126375	39.8	1.2261181779657
17	126997	39.9	1.1691382460616
17	127621	40	0.973
17	128244	40.1	1.2774669653855
17	128866	40.2	0.973
17	129488	40.3	1.2807620941103
17	130110	40.4	0.973
17	130732	40.5	1.2619601444965
17	131354	40.6	0.973
17	131976	40.7	1.2222709601193
17	132598	40.8	1.1456337172011
17	133220	40.9	1.1704261180375
17	133844	41	1.3787309461315
17	134466	41.1	1.1726760738686
17	135088	41.2	0.973
17	135710	41.3	0.973
17	136332	41.4	1.1551555731446
17	136954	41.5	1.3451910246141
17	137576	41.6	0.973
17	138198	41.7	1.2383875728005
17	138820	41.8	1.225154567358
17	139442	41.9	1.1848726671993
17	140066	42	0.973
17	140688	42.1	1.2240747841053
17	141310	42.2	1.1551425825433
17	141932	42.3	0.973
17	142554	42.4	0.973
17	143176	42.5	1.2083462629333
17	143798	42.6	0.973
17	144420	42.7	1.2896137745674
17	145171	42.8	1.2347156101968
17	145894	42.9	0.973
17	146647	43	1.2350480975878
17	147398	43.1	1.1671894951272
17	148120	43.2	1.2483200263483
17	148842	43.3	1.1594545345367
17	149593	43.4	0.973
17	150344	43.5	1.1541596076052
17	151095	43.6	1.1627075716793
17	151846	43.7	0.973
17	152597	43.8	1.2125180396375
17	153348	43.9	1.1542325130537
17	154101	44	1.2305881845623
17	154852	44.1	1.2667996649846
17	155566	44.2	0.973
17	156280	44.3	1.1766535217919
17	157023	44.4	1.1998492749349
17	157766	44.5	1.1499817148814
17	158509	44.6	1.2082714318984
17	159252	44.7	1.1488000350312
17	159995	44.8	1.2950151230695
17	160738	44.9	1.1472267269819
17	161454	45	0.973
17	162197	45.1	1.2182617884587
17	162940	45.2	0.973
17	163683	45.3	1.219516521111
17	164426	45.4	0.973
17	165169	45.5	1.2779433287889
17	165912	45.6	1.2400508647208
17	166655	45.7	0.973
17	167398	45.8	1.2647837932489
17	168141	45.9	0.973
17	168857	46	1.2777772829892
17	169600	46.1	0.973
17	170343	46.2	1.2718530823046
17	171086	46.3	0.973
17	171800	46.4	1.2957759490219
17	172543	46.5	1.1685143462557
17	173286	46.6	0.973
17	174000	46.7	1.1579339501247
17	174743	46.8	1.2954310316027
17	175486	46.9	0.973
17	176231	47	1.2116824199728
17	176974	47.1	1.2475976498414
17	177688	47.2	0.973
17	178431	47.3	1.3500972243937
17	179174	47.4	0.973
17	179917	47.5	1.2521755652422
17	180660	47.6	0.973
17	181403	47.7	0.973
17	182146	47.8	1.221286973346
17	182889	47.9	0.973
17	183634	48	1.2735802655107
17	184348	48.1	1.2173925627021
17	185091	48.2	0.973
17	185834	48.3	0.973
17	186577	48.4	1.3434180082339
17	187320	48.5	0.973
17	188063	48.6	1.2689740552761
17	188806	48.7	1.2011792357045
17	189520	48.8	1.2736554874
17	190263	48.9	0.973
17	191008	49	1.1455585632239
17	191722	49.1	1.3539725804547
17	192465	49.2	1.1845033121886
17	193208	49.3	1.1657160545293
17	194061	49.4	0.973
17	194945	49.5	1.2224826489813
17	195829	49.6	1.1508994366153
17	196682	49.7	1.32679945916
17	197566	49.8	0.973
17	198419	49.9	1.1853692688033
17	199274	50	1.3703135634683
17	200158	50.1	0.973
17	201042	50.2	1.2059112529883
17	201895	50.3	1.3590440325487
17	202779	50.4	0.973
17	203663	50.5	1.2629816352091
17	204516	50.6	0.973
17	205400	50.7	1.2571670105528
17	206253	50.8	0.973
17	207137	50.9	1.2370839581268
17	208023	51	0.973
17	208907	51.1	1.3601376920266
17	209791	51.2	1.1943311242923
17	210644	51.3	0.973
17	211528	51.4	1.3574121615167
17	212381	51.5	1.171822315779
17	213265	51.6	1.1719348194939
17	214118	51.7	0.973
17	215002	51.8	1.1536546099139
17	215886	51.9	1.2900654629957
17	216741	52	1.1769518342681
17	217625	52.1	0.973
17	218509	52.2	1.2471874281859
17	219393	52.3	1.1721911896399
17	220246	52.4	0.973
17	221130	52.5	1.2168574212107
17	222014	52.6	0.973
17	222898	52.7	1.1753973646304
17	223782	52.8	1.198981291084
17	224666	52.9	0.973
17	225552	53	1.1520457475006
17	226405	53.1	1.2601544370161
17	227258	53.2	0.973
17	228142	53.3	1.2497903790571
17	229026	53.4	1.148485417274
17	229910	53.5	1.1496856048014
17	230763	53.6	1.2995677845034
17	231616	53.7	0.973
17	232469	53.8	1.2567835093874
17	233353	53.9	1.1642608891494
17	234239	54	1.1581058974279
17	235123	54.1	1.3003982177762
17	235976	54.2	0.973
17	236829	54.3	1.3174380425592
17	237713	54.4	1.2021434769848
17	238597	54.5	0.973
17	239481	54.6	1.1422760623815
17	240334	54.7	1.3535348840178
17	241218	54.8	0.973
17	242071	54.9	1.2958391361338
17	242957	55	1.1627451114974
17	243841	55.1	1.1883148764164
17	244694	55.2	1.2296311950604
17	245578	55.3	0.973
17	246462	55.4	1.3033312216676
17	247346	55.5	0.973
17	248199	55.6	1.3401701847036
17	249083	55.7	0.973
17	249967	55.8	1.2129437516063
17	251004	55.9	1.1548663755852
17	252043	56	1.180606725521
17	253047	56.1	1.3200686164903
17	254084	56.2	1.1732936843938
17	255121	56.3	0.973
17	256158	56.4	1.2834325326723
17	257195	56.5	1.2021718462539
17	258232	56.6	0.973
17	259269	56.7	1.3025860857994
17	260306	56.8	0.973
17	261343	56.9	1.3611827164901
17	262382	57	0.973
17	263419	57.1	1.2231522432861
17	264456	57.2	1.1552737548845
17	265493	57.3	1.1485821145953
17	266530	57.4	1.2055703530099
17	267567	57.5	1.1822001122632
17	268604	57.6	1.280789366725
17	269641	57.7	1.1735301449237
17	270678	57.8	1.1538722497676
17	271715	57.9	0.973
17	272721	58	1.1749954286285
17	273725	58.1	1.2637410927983
17	274762	58.2	0.973
17	275799	58.3	1.2111685832768
17	276803	58.4	1.2287446439422
17	277840	58.5	1.2624102746648
17	278877	58.6	1.1438239103687
17	279914	58.7	0.973
17	280951	58.8	1.2732297079825
17	281955	58.9	0.973
17	282994	59	1.1733813823115
17	284031	59.1	0.973
17	285068	59.2	1.3597442172531
17	286106	59.3	0.973
17	287143	59.4	1.3010285562221
17	288147	59.5	0.973
17	289184	59.6	1.2759306171044
17	290221	59.7	0.973
17	291258	59.8	1.3220294304167
17	292295	59.9	0.973
17	293334	60	1.259126525403
17	294338	60.1	0.973
17	295375	60.2	1.2005641138029
17	296412	60.3	1.1912892718745
17	297449	60.4	1.249594735045
17	298486	60.5	0.973
17	299523	60.6	0.973
17	300560	60.7	1.2470327185184
17	301564	60.8	1.2590599776274
17	302568	60.9	0.973
17	303607	61	1.2158002012682
17	304644	61.1	1.3068231882847
17	305681	61.2	0.973
17	306685	61.3	0.973
17	307689	61.4	1.2418571981652
17	308693	61.5	1.2384855722964
17	309730	61.6	1.2148298196086
17	310767	61.7	0.973
17	311804	61.8	1.2246694934809
17	312841	61.9	1.1935858236971
17	313847	62	1.183467146288
17	314884	62.1	1.263285381921
17	315921	62.2	1.1644602856184
17	316958	62.3	1.1670201102495
17	317995	62.4	0.973
17	319032	62.5	1.2481749190953
17	320069	62.6	0.973
17	321106	62.7	1.2568561696125
17	322143	62.8	1.2633060869854
17	323180	62.9	0.973
17	324219	63	1.2472876909462
17	325256	63.1	1.1690107005449
17	326293	63.2	0.973
17	327330	63.3	1.3629572887711
17	328334	63.4	0.973
17	329371	63.5	1.1978874558172
17	330408	63.6	1.2340619713415
17	331445	63.7	1.2233163158599
17	332482	63.8	0.973
17	333519	63.9	1.2687366816317
17	334558	64	0.973
17	335595	64.1	1.2204740170025
17	336599	64.2	0.973
17	337603	64.3	1.3463055364883
17	338640	64.4	1.1904422449048
17	339677	64.5	1.187540477267
17	340714	64.6	0.973
17	341751	64.7	0.973
17	342788	64.8	1.3011320775123
17	343825	64.9	1.1535110259123
17	344864	65	1.1552936101828
17	345901	65.1	1.144146663536
17	346905	65.2	1.2652951762463
17	347909	65.3	1.1955499528629
17	348946	65.4	0.973
17	349983	65.5	1.190426827396
17	351020	65.6	1.1691249228863
17	352057	65.7	1.147970970094
17	353061	65.8	1.2085177211128
17	354098	65.9	0.973
17	355137	66	1.2913110699552
17	356174	66.1	0.973
17	357211	66.2	1.2351837073293
17	358248	66.3	0.973
17	359285	66.4	1.3279045691026
17	360322	66.5	1.2089126440818
17	361359	66.6	0.973
17	362363	66.7	1.2905841266127
17	363400	66.8	0.973
17	364396	66.9	0.973
17	365427	67	1.3781550460263
17	366456	67.1	0.973
17	367452	67.2	1.270208072414
17	368448	67.3	1.1748201012132
17	369439	67.4	0.973
17	370460	67.5	1.2699133202041
17	371481	67.6	1.1890344211661
17	372502	67.7	1.1740252305355
17	373523	67.8	1.1916061918136
17	374544	67.9	1.1433636015055
17	375567	68	0.973
17	376588	68.1	1.208241709391
17	377609	68.2	1.1780999450742
17	378600	68.3	1.2627305869101
17	379621	68.4	0.973
17	380642	68.5	1.177057960952
17	381655	68.6	1.2578265383934
17	382668	68.7	1.1703324334569
17	383681	68.8	1.1824227014746
17	384686	68.9	1.1872062305449
17	385693	69	0.973
17	386698	69.1	1.2054172600638
17	387703	69.2	1.3525990334035
17	389224	69.3	0.973
17	390229	69.4	1.2066989173338
17	391234	69.5	0.973
17	392239	69.6	0.973
17	393236	69.7	1.2629733105419
17	394203	69.8	0.973
17	395200	69.9	1.3074378479913
17	396199	70	0.973
17	397196	70.1	1.2175655190041
17	398163	70.2	1.1410094763856
17	399238	70.3	1.2093766584277
17	400235	70.4	1.180404671171
17	401232	70.5	1.275332766334
17	402229	70.6	0.973
17	403226	70.7	1.2562941298499
17	404223	70.8	1.2731790066431
17	405220	70.9	0.973
17	406219	71	1.2462226003301
17	407208	71.1	0.973
17	408167	71.2	1.2682875986717
17	409156	71.3	1.1918485546429
17	410145	71.4	1.1861459529223
17	411134	71.5	0.973
17	412123	71.6	1.2248793247329
17	413112	71.7	1.2757022153216
17	414101	71.8	0.973
17	415090	71.9	1.2758232630157
17	416081	72	0.973
17	417070	72.1	1.2373938694426
17	418059	72.2	1.2227832884605
17	419048	72.3	0.973
17	420007	72.4	1.1979329679839
17	420996	72.5	1.2844974791524
17	421985	72.6	0.973
17	422966	72.7	1.3154316830049
17	423947	72.8	0.973
17	424928	72.9	1.1891475291151
17	425911	73	1.1733871612805
17	426892	73.1	1.3521273452784
17	427873	73.2	0.973
17	428854	73.3	0.973
17	429835	73.4	1.1989236533663
17	430786	73.5	1.2400831455766
17	431767	73.6	0.973
17	432748	73.7	1.3890518079416
17	433699	73.8	0.973
17	434680	73.9	1.2269302841304
17	435633	74	1.2235770185719
17	436614	74.1	0.973
17	437595	74.2	1.2903819142718
17	438546	74.3	1.2005772944841
17	439527	74.4	0.973
17	440500	74.5	0.973
17	441443	74.6	1.3027691921411
17	442386	74.7	1.2337143268537
17	443359	74.8	1.1528805749133
17	444302	74.9	0.973
17	445277	75	1.2793176763142
17	446250	75.1	0.973
17	447223	75.2	1.2226304281481
17	448196	75.3	0.973
17	449139	75.4	1.3221385944105
17	450082	75.5	1.2320819302504
17	451055	75.6	0.973
17	451998	75.7	0.973
17	452971	75.8	1.2790115415183
17	453944	75.9	0.973
17	454889	76	1.2453951696328
17	455832	76.1	1.240399407183
17	456805	76.2	0.973
17	457778	76.3	0.973
17	458751	76.4	1.1662030681373
17	459720	76.5	1.2444599050565
17	460689	76.6	0.973
17	461624	76.7	1.2092975290431
17	462593	76.8	1.3152883627202
17	463528	76.9	0.973
17	464499	77	1.2989222664527
17	465468	77.1	0.973
17	466437	77.2	1.3243289757099
17	467406	77.3	0.973
17	468371	77.4	0.973
17	469340	77.5	1.1902234008403
17	470309	77.6	1.3346595920638
17	471278	77.7	0.973
17	472213	77.8	1.1511648635734
17	473148	77.9	1.1697197709161
17	474085	78	0.973
17	475054	78.1	1.1798406746191
17	476023	78.2	1.3389747951718
17	476958	78.3	1.2041305818134
17	477927	78.4	0.973
17	478896	78.5	1.2370915861221
17	479831	78.6	1.2873588489222
17	480800	78.7	0.973
17	481735	78.8	1.2444663479011
17	482704	78.9	0.973
17	483675	79	1.2459902738774
17	484610	79.1	1.1534305667132
17	485579	79.2	1.2408321187692
17	486548	79.3	0.973
17	487517	79.4	1.2792591262187
17	488486	79.5	1.2198124093934
17	489455	79.6	0.973
17	490424	79.7	1.2285306634766
17	491389	79.8	1.169307738546
17	492324	79.9	1.1745428646245
17	493295	80	0.973
17	494266	80.1	1.272579132247
17	495209	80.2	1.2117681190122
17	496180	80.3	1.1795343156744
17	497123	80.4	0.973
17	498094	80.5	1.2650389012974
17	499065	80.6	0.973
17	500032	80.7	1.2293965158212
17	501003	80.8	0.973
17	501974	80.9	1.2833772152113
17	502919	81	0.973
17	503862	81.1	1.1886990422603
17	504833	81.2	0.973
17	505776	81.3	1.2130930071016
17	506747	81.4	1.3518986626273
17	507718	81.5	0.973
17	508660	81.6	1.1918171058106
17	509631	81.7	0.973
17	510602	81.8	1.2726549293429
17	511545	81.9	0.973
17	512518	82	1.2100736836962
17	513461	82.1	0.973
17	514396	82.2	1.1737672755792
17	515362	82.3	1.3233880781438
17	516328	82.4	0.973
17	517263	82.5	1.2334108235145
17	518229	82.6	1.2842448224938
17	519190	82.7	0.973
17	520117	82.8	0.973
17	521078	82.9	1.2361221251324
17	522041	83	1.3215322092426
17	523002	83.1	0.973
17	523963	83.2	0.973
17	524924	83.3	1.2194758315587
17	525885	83.4	0.973
17	526846	83.5	1.1914437997161
17	527807	83.6	1.18933638969
17	528768	83.7	1.3306579652139
17	529729	83.8	0.973
17	530656	83.9	1.154166451036
17	531619	84	1.3457301911674
17	532580	84.1	0.973
17	533507	84.2	0.973
17	534468	84.3	1.1520608872303
17	535429	84.4	0.973
17	536390	84.5	1.2599993948176
17	537351	84.6	1.1496288458758
17	538312	84.7	1.2448338414061
17	539273	84.8	1.1747879956305
17	540234	84.9	0.973
17	541162	85	1.1430961239394
17	542123	85.1	1.3464618021416
17	543084	85.2	0.973
17	544011	85.3	0.973
17	544972	85.4	1.222619507916
17	545898	85.5	1.2777684927579
17	546859	85.6	0.973
17	547820	85.7	1.3987660897909
17	548781	85.8	0.973
17	549742	85.9	0.973
17	550670	86	1.3490274920338
17	551596	86.1	0.973
17	552523	86.2	1.2204437382181
17	553484	86.3	1.2589571043701
17	554445	86.4	0.973
17	555406	86.5	1.1887017692313
17	556367	86.6	1.3507540031967
17	557318	86.7	0.973
17	558279	86.8	0.973
17	559205	86.9	1.1841310594713
17	560133	87	1.2381744482632
17	561094	87.1	0.973
17	562020	87.2	1.257797963146
17	562981	87.3	0.973
17	563907	87.4	1.2945569773054
17	564868	87.5	0.973
17	565794	87.6	1.168452700019
17	566755	87.7	1.2651451719441
17	567716	87.8	0.973
17	568677	87.9	1.3282226542482
17	569605	88	1.143775471466
17	570566	88.1	0.973
17	571527	88.2	1.2083914009626
17	572488	88.3	0.973
17	573414	88.4	1.3105910758111
17	574375	88.5	0.973
17	575301	88.6	1.3211521703638
17	576228	88.7	1.2037700897308
17	577189	88.8	0.973
17	578150	88.9	1.1415409775244
17	579113	89	1.1847746823384
17	580074	89.1	0.973
17	581035	89.2	1.1984848752074
17	581962	89.3	1.2253747705473
17	582923	89.4	1.1726314184499
17	583849	89.5	0.973
17	584810	89.6	1.185482806156
17	585771	89.7	1.2810204980005
17	586732	89.8	1.1537773044751
17	587693	89.9	0.973
17	588656	90	1.1888118744176
17	589582	90.1	0.973
17	590543	90.2	1.3123761826684
17	591469	90.3	0.973
17	592430	90.4	1.1773517832772
17	593391	90.5	1.338468277801
17	594352	90.6	0.973
17	595278	90.7	1.1787147085334
17	596239	90.8	1.227670815124
17	597200	90.9	0.973
17	598163	91	1.3258227356477
17	599124	91.1	1.1665839107043
17	600050	91.2	0.973
17	601011	91.3	1.1950386841948
17	601972	91.4	1.2310369314056
17	603091	91.5	1.2251826498923
17	604210	91.6	0.973
17	605329	91.7	1.305405311707
17	606448	91.8	0.973
17	607529	91.9	0.973
17	608611	92	1.2838518897631
17	609730	92.1	0.973
17	610849	92.2	0.973
17	611968	92.3	1.2832979858418
17	613048	92.4	0.973
17	614167	92.5	0.973
17	615286	92.6	1.1543559652147
17	616405	92.7	1.1799995886075
17	617521	92.8	1.2200749690245
17	618640	92.9	1.2144975954202
17	619761	93	1.2076521641588
17	620880	93.1	1.2460677908985
17	621999	93.2	1.1460713678599
17	623118	93.3	1.2025386568688
17	624237	93.4	0.973
17	625356	93.5	1.2857105196713
17	626475	93.6	0.973
17	627594	93.7	1.3661144107907
17	628713	93.8	0.973
17	629832	93.9	1.1883091877636
17	630915	94	1.2331428737676
17	632204	94.1	1.2377087329165
17	633493	94.2	0.973
17	634782	94.3	1.163710857245
17	636071	94.4	0.973
17	637360	94.5	1.3066105727188
17	638649	94.6	0.973
17	639896	94.7	0.973
17	641143	94.8	1.1879869882374
17	642432	94.9	1.1422119127234
17	643723	95	1.2158308560199
17	645012	95.1	0.973
17	646301	95.2	1.3870307174918
17	647590	95.3	0.973
17	648837	95.4	1.2068133216266
17	650084	95.5	1.2625839147998
17	651373	95.6	0.973
17	652620	95.7	1.3171902461386
17	653909	95.8	0.973
17	655198	95.9	1.3364431109021
17	656489	96	0.973
17	657737	96.1	1.1945643911911
17	659026	96.2	1.2206848589514
17	660315	96.3	0.973
17	661604	96.4	1.2941344909386
17	662893	96.5	0.973
17	664182	96.6	1.3119097030682
17	665607	96.7	1.1965764954678
17	667078	96.8	1.1501241427329
17	668536	96.9	0.973
17	670009	97	1.1561656791641
17	671480	97.1	1.2800868427948
17	672951	97.2	1.2378181239633
17	674422	97.3	1.1739277356617
17	675893	97.4	1.2186793856529
17	677364	97.5	0.973
17	678835	97.6	1.3257851382226
17	680306	97.7	0.973
17	681732	97.8	1.203233305477
17	683203	97.9	0.973
17	684676	98	0.973
17	686147	98.1	1.37068915142
17	687618	98.2	0.973
17	689089	98.3	0.973
17	690560	98.4	1.279543142655
17	692031	98.5	0.973
17	693502	98.6	1.1531929536741
17	694973	98.7	1.3628775459145
17	696444	98.8	0.973
17	697862	98.9	0.973
17	699327	99	1.3834761647057
17	700783	99.1	1.1761250327791
17	702246	99.2	1.1631009416345
17	703902	99.3	1.1490899036244
17	705558	99.4	1.2059415381738
17	707214	99.5	1.1740277991253
17	708870	99.6	0.973
17	710479	99.7	1.2665086077254
17	712135	99.8	0.973
17	713791	99.9	1.2336871100746
17	715449	100	0.973
17	717105	100.1	1.2373526245276
17	718714	100.2	1.162810542045
17	720370	100.3	1.2285105389646
17	722026	100.4	1.148371722905
17	723682	100.5	0.973
17	725291	100.6	1.1614921803618
17	726947	100.7	1.1501847286028
17	728603	100.8	1.2680030376541
17	730259	100.9	1.2098294568408
17	731917	101	1.2548152065917
17	733573	101.1	0.973
17	735229	101.2	1.2006001105754
17	736885	101.3	1.2330086463319
17	738541	101.4	0.973
17	740150	101.5	0.973
17	741759	101.6	0.973
17	743368	101.7	1.3033382711044
17	745025	101.8	1.2165774037215
17	746834	101.9	1.1443258543772
17	748690	102	1.1459641351797
17	750530	102.1	1.1584003745907
17	752384	102.2	0.973
17	754238	102.3	1.1532281124342
17	756092	102.4	1.2024699926733
17	757946	102.5	1.1839807165302
17	759755	102.6	1.3172317110529
17	761609	102.7	0.973
17	763463	102.8	1.2105207230427
17	765317	102.9	0.973
17	767173	103	1.1786297373475
17	769027	103.1	1.2306354796436
17	770881	103.2	0.973
17	772690	103.3	1.2306486314203
17	774544	103.4	0.973
17	776398	103.5	1.2424671635658
17	778252	103.6	1.2821514075513
17	780106	103.7	0.973
17	781915	103.8	0.973
17	783769	103.9	1.3161276395888
17	785580	104	1.186348619095
17	787434	104.1	0.973
17	789288	104.2	1.1916528731697
17	791142	104.3	1.1524150033155
17	792996	104.4	1.1782471710251
17	794850	104.5	1.3599178596228
17	796873	104.6	0.973
17	798936	104.7	0.973
17	800959	104.8	1.290367374731
17	803030	104.9	0.973
17	805103	105	1.2794498054652
17	807174	105.1	0.973
17	809245	105.2	1.3544785708949
17	811317	105.3	0.973
17	813340	105.4	0.973
17	815412	105.5	0.973
17	817469	105.6	1.3721617087508
17	819541	105.7	0.973
17	821565	105.8	0.973
17	823588	105.9	1.2841737680398
17	825613	106	0.973
17	827636	106.1	1.2131070916298
17	829708	106.2	1.225539664961
17	831780	106.3	1.1803539304591
17	833852	106.4	1.1749441660871
17	835924	106.5	0.973
17	837996	106.6	1.1820981832437
17	840068	106.7	1.1588051533807
17	842140	106.8	1.316219256615
17	844212	106.9	0.973
17	846286	107	0.973
17	848350	107.1	0.973
17	850381	107.2	1.2232527469076
17	852500	107.3	1.2389010594136
17	854880	107.4	1.180575730503
17	857224	107.5	1.1552980189616
17	859569	107.6	0.973
17	861965	107.7	1.3529572996125
17	864361	107.8	1.1430502389258
17	866757	107.9	0.973
17	869163	108	1.3006501430141
17	871575	108.1	0.973
17	873944	108.2	1.2234227178313
17	876313	108.3	0.973
17	878682	108.4	1.3697944111213
17	881043	108.5	0.973
17	883455	108.6	1.223627271036
17	885867	108.7	0.973
17	888279	108.8	1.1646462365814
17	890691	108.9	1.3222002571791
17	893113	109	1.1431949229085
17	895533	109.1	1.1664895607964
17	897953	109.2	1.1702711598941
17	900373	109.3	1.1434121755938
17	902793	109.4	1.1823281960287
17	905213	109.5	1.300234010304
17	907633	109.6	0.973
17	910053	109.7	1.189777261173
17	912427	109.8	1.2587494557929
17	914847	109.9	0.973
17	917269	110	1.1440593922178
17	919689	110.1	1.2735364873141
17	922109	110.2	0.973
17	924483	110.3	1.2109686501769
17	926903	110.4	1.2090952748935
17	929323	110.5	0.973
17	931727	110.6	1.1715194400484
17	934123	110.7	0.973
17	936752	110.8	1.2226331288647
17	939373	110.9	1.2826878113598
17	941988	111	0.973
17	944593	111.1	1.2461118089503
17	947190	111.2	1.1487137474973
17	949779	111.3	1.3058508163156
17	952345	111.4	0.973
17	954898	111.5	1.359249539291
17	957446	111.6	1.1608100400717
17	959994	111.7	1.1877144115825
17	962497	111.8	0.973
17	965000	111.9	1.2635025150099
17	967504	112	0.973
17	970042	112.1	1.1421599027043
17	972537	112.2	1.2899147742087
17	975071	112.3	1.1916181479907
17	977600	112.4	0.973
17	980129	112.5	1.2889287568122
17	982653	112.6	1.171797306777
17	985177	112.7	1.2400554750895
17	987696	112.8	0.973
17	990158	112.9	1.3902505922413
17	992679	113	0.973
17	995198	113.1	1.3344105608234
17	997717	113.2	0.973
17	1000236	113.3	0.973
17	1002755	113.4	0.973
17	1005274	113.5	1.1990841951327
17	1007793	113.6	1.3546585263181
17	1010312	113.7	0.973
17	1012831	113.8	0.973
17	1015350	113.9	1.3413908676593
17	1017871	114	0.973
17	1020390	114.1	1.1840626573305
17	1022853	114.2	1.1750145515676
17	1025372	114.3	0.973
17	1027891	114.4	1.1738894555347
17	1030410	114.5	1.3155854801142
17	1032929	114.6	0.973
17	1035391	114.7	1.3416677820278
17	1037910	114.8	1.1564653159922
17	1040372	114.9	1.2465491760836
17	1042893	115	0.973
17	1045356	115.1	1.2599633944225
17	1047875	115.2	0.973
17	1050337	115.3	1.2313553899188
17	1052856	115.4	0.973
17	1055318	115.5	1.3024021488136
17	1058080	115.6	0.973
17	1060842	115.7	1.2270142559145
17	1063556	115.8	1.1487608647118
17	1066318	115.9	0.973
17	1069043	116	0.973
17	1071766	116.1	1.331578755536
17	1074489	116.2	1.1762634057262
17	1077214	116.3	1.1784588518192
17	1079937	116.4	0.973
17	1082699	116.5	1.2113457251147
17	1085461	116.6	1.1468525066137
17	1088175	116.7	1.1791106668482
17	1090945	116.8	1.186457285381
17	1093670	116.9	0.973
17	1096434	117	1.3120111470346
17	1099204	117.1	0.973
17	1101927	117.2	1.1771976017931
17	1104593	117.3	1.3077095403875
17	1107363	117.4	1.1974616531377
17	1110077	117.5	0.973
17	1112791	117.6	1.1868933925426
17	1115514	117.7	1.1970176994619
17	1118237	117.8	0.973
17	1120960	117.9	1.194922036726
17	1123687	118	1.2180203425681
17	1126441	118.1	1.1877684351978
17	1129156	118.2	1.2668014162614
17	1131871	118.3	0.973
17	1134633	118.4	1.1480525751756
17	1137348	118.5	1.3558091125551
17	1140054	118.6	0.973
17	1142816	118.7	1.2405229235219
17	1145522	118.8	1.1509099278673
17	1148238	118.9	1.3489872405717
17	1150955	119	1.1643587380216
17	1153709	119.1	0.973
17	1156463	119.2	1.2628630966537
17	1159180	119.3	0.973
17	1161934	119.4	1.1943077766416
17	1164592	119.5	1.3395959664331
17	1167307	119.6	0.973
17	1170023	119.7	1.2419864177592
17	1172777	119.8	1.2219918766477
17	1175531	119.9	0.973
17	1178250	120	1.1528871950936
17	1181004	120.1	1.3410455214138
17	1183758	120.2	1.1510410747467
17	1186474	120.3	1.1619348958415
17	1189190	120.4	0.973
17	1191944	120.5	1.2713865590143
17	1194706	120.6	1.1593029806325
17	1197460	120.7	1.254556709918
17	1200222	120.8	0.973
17	1202938	120.9	1.2087373660963
17	1205646	121	0.973
17	1208352	121.1	0.973
17	1211098	121.2	1.3076431791221
17	1213814	121.3	0.973
17	1216568	121.4	1.2365953334024
17	1219226	121.5	1.1955925401771
17	1221942	121.6	0.973
17	1224696	121.7	1.3659333831459
17	1227628	121.8	0.973
17	1230609	121.9	1.1923261922401
17	1233483	122	0.973
17	1236462	122.1	1.3389690273025
17	1239395	122.2	0.973
17	1242318	122.3	1.2785393647354
17	1245240	122.4	0.973
17	1248163	122.5	0.973
17	1251095	122.6	1.3606841171754
17	1254028	122.7	0.973
17	1256901	122.8	0.973
17	1259873	122.9	1.355099969551
17	1262895	123	0.973
17	1265864	123.1	1.2766450344588
17	1268795	123.2	0.973
17	1271759	123.3	1.218856153746
17	1274738	123.4	1.3232808147289
17	1277718	123.5	0.973
17	1280650	123.6	1.1628224784885
17	1283572	123.7	1.289132158023
17	1286552	123.8	1.1614271584752
17	1289473	123.9	0.973
17	1292407	124	1.3656052128562
17	1295340	124.1	0.973
17	1298272	124.2	1.3594893347099
17	1301204	124.3	0.973
17	1304134	124.4	1.1884070026068
17	1307056	124.5	1.2637479850969
17	1310020	124.6	0.973
17	1312992	124.7	1.3195214565942
17	1315917	124.8	1.1611720111864
17	1318888	124.9	1.1458264172409
17	1321803	125	0.973
17	1324775	125.1	1.2395315230643
17	1327794	125.2	1.2434373469838
17	1330718	125.3	1.1552461447804
17	1333690	125.4	1.220113140877
17	1336696	125.5	0.973
17	1339559	125.6	1.3429286299305
17	1342470	125.7	1.1511339974718
17	1345435	125.8	0.973
17	1348400	125.9	0.973
17	1351363	126	1.1454208385897
17	1354277	126.1	1.2987293666634
17	1357289	126.2	0.973
17	1360261	126.3	1.3129729185208
17	1363225	126.4	0.973
17	1366149	126.5	1.3145244046454
17	1369063	126.6	0.973
17	1371975	126.7	0.973
17	1374899	126.8	1.2578872984585
17	1377812	126.9	1.1823070769116
17	1380726	127	0.973
17	1383737	127.1	1.2064330975146
17	1386748	127.2	1.278694415854
17	1389759	127.3	0.973
17	1392731	127.4	0.973
17	1395653	127.5	1.3448891689449
17	1398564	127.6	0.973
17	1401535	127.7	1.1670513922892
17	1404507	127.8	0.973
17	1407414	127.9	1.3854389188272
17	1410338	128	1.1647490566821
17	1413263	128.1	0.973
17	1416186	128.2	1.2409041210011
17	1419150	128.3	0.973
17	1422114	128.4	1.3013001796548
17	1425074	128.5	0.973
17	1428038	128.6	1.3544589411465
17	1430951	128.7	0.973
17	1433911	128.8	1.1636703680046
17	1436835	128.9	1.1551560727584
17	1439807	129	1.2722443866513
17	1442732	129.1	1.2531264773187
17	1445704	129.2	1.212008087566
17	1448715	129.3	0.973
17	1451640	129.4	0.973
17	1454604	129.5	1.2441671227623
17	1457515	129.6	0.973
17	1460428	129.7	1.3387782868016
17	1463388	129.8	0.973
17	1466301	129.9	0.973
17	1469214	130	1.1883767457355
17	1472186	130.1	1.2829611574645
17	1475098	130.2	1.2386299952605
17	1478062	130.3	0.973
17	1480987	130.4	1.1704579539733
17	1483912	130.5	1.2700377511189
17	1486883	130.6	0.973
17	1489888	130.7	1.3792468392646
17	1492858	130.8	0.973
17	1495781	130.9	0.973
17	1498802	131	1.1799368869627
17	1501756	131.1	1.3325196461462
17	1504719	131.2	0.973
17	1507633	131.3	1.3034334775393
17	1510597	131.4	1.1665590144329
17	1513559	131.5	1.2196414782177
17	1516511	131.6	0.973
17	1519467	131.7	1.2010639362403
17	1522384	131.8	1.256248152103
17	1525287	131.9	1.1541215769876
17	1528207	132	1.2888644697918
17	1531171	132.1	0.973
17	1534085	132.2	1.2039311438666
17	1537050	132.3	0.973
17	1540005	132.4	1.3333914949502
17	1542919	132.5	0.973
17	1545881	132.6	1.2788187416215
17	1548794	132.7	0.973
17	1551756	132.8	1.3010019526122
17	1554711	132.9	1.2002423994225
17	1557667	133	0.973
17	1560621	133.1	1.2752477746147
17	1563524	133.2	0.973
17	1566487	133.3	1.1501005577628
17	1569489	133.4	1.1628594065756
17	1572440	133.5	1.3379067101823
17	1575403	133.6	1.1886479278266
17	1578304	133.7	1.172355397877
17	1581266	133.8	0.973
17	1584169	133.9	0.973
17	1587085	134	1.2854937395026
17	1590038	134.1	0.973
17	1592990	134.2	1.2149663586531
17	1595953	134.3	0.973
17	1598808	134.4	1.291761873557
17	1601771	134.5	1.1630215057475
17	1604734	134.6	0.973
17	1607745	134.7	1.3181001898616
17	1610708	134.8	0.973
17	1613611	134.9	1.325526733453
17	1616516	135	0.973
17	1619432	135.1	1.3398501977164
17	1622383	135.2	0.973
17	1625297	135.3	0.973
17	1628258	135.4	1.1776014543415
17	1632640	135.5	1.3813207172273
17	1635591	135.6	0.973
17	1638505	135.7	1.1436391239498
17	1641456	135.8	0.973
17	1644410	135.9	1.3049899478191
17	1647327	136	0.973
17	1650183	136.1	1.2389051766511
17	1653147	136.2	0.973
17	1656110	136.3	1.2770448088639
17	1658965	136.4	0.973
17	1662139	136.5	1.1912748697661
17	1664994	136.6	1.2978453528594
17	1667848	136.7	1.1615444166227
17	1670799	136.8	0.973
17	1673702	136.9	1.2200021912666
17	1676655	137	1.3160699752798
17	1679618	137.1	0.973
17	1682532	137.2	1.1508387394011
17	1685543	137.3	1.1531833488409
17	1688459	137.4	1.2179097462333
17	1691373	137.5	1.2955278064431
17	1694275	137.6	0.973
17	1697187	137.7	1.1943669991198
17	1700083	137.8	0.973
17	1702978	137.9	1.2358833491223
17	1705892	138	1.2221108108621
17	1708888	138.1	0.973
17	1711790	138.2	1.2256076194158
17	1714737	138.3	1.1668134152836
17	1717591	138.4	1.2476704138247
17	1720487	138.5	0.973
17	1723447	138.6	1.1981425642288
17	1726404	138.7	0.973
17	1729361	138.8	1.2161079478229
17	1732320	138.9	1.1714758144592
17	1735218	139	1.2295802858108
17	1738223	139.1	0.973
17	1741183	139.2	1.1637651760884
17	1744095	139.3	1.2765658211344
17	1747055	139.4	1.2684505657397
17	1750011	139.5	0.973
17	1752905	139.6	1.1983373688782
17	1755864	139.7	1.1655374711028
17	1758718	139.8	1.1711333081865
17	1761677	139.9	0.973
17	1764592	140	1.3083829670058
17	1767553	140.1	0.973
17	1770463	140.2	1.2336175667069
17	1773316	140.3	1.2112346402969
17	1776210	140.4	0.973
17	1779205	140.5	1.2013383121748
17	1782211	140.6	1.3250915134013
17	1785168	140.7	1.159441804732
17	1788080	140.8	1.1524025532691
17	1791028	140.9	0.973
17	1793924	141	1.2687487855782
17	1796930	141.1	0.973
17	1799925	141.2	1.2479242517304
17	1802871	141.3	1.2216185079835
17	1805827	141.4	1.2530205643074
17	1808737	141.5	0.973
17	1811649	141.6	0.973
17	1814606	141.7	1.3638629489479
17	1817566	141.8	1.1869629347958
17	1820476	141.9	0.973
17	1823484	142	0.973
17	1826444	142.1	1.2384466816629
17	1829354	142.2	0.973
17	1832248	142.3	1.1920453910773
17	1835142	142.4	1.233482913613
17	1838103	142.5	1.154506332838
17	1840996	142.6	0.973
17	1843906	142.7	1.3020025379609
17	1846816	142.8	1.1712597253838
17	1849761	142.9	1.1536374709057
17	1852706	143	1.2323277283287
17	1855651	143.1	0.973
17	1858608	143.2	1.2695104454072
17	1861556	143.3	0.973
17	1864501	143.4	1.3116550631434
17	1867412	143.5	0.973
17	1870369	143.6	1.1511817903972
17	1873262	143.7	1.2329054629715
17	1876268	143.8	1.2898403414501
17	1879214	143.9	1.1733360327876
17	1882173	144	0.973
17	1885083	144.1	1.2312310878815
17	1888029	144.2	1.2377083062467
17	1890974	144.3	0.973
17	1893980	144.4	1.2916140052321
17	1896969	144.5	0.973
17	1899914	144.6	1.3566389216079
17	1902825	144.7	0.973
17	1905785	144.8	1.2170585198623
17	1908697	144.9	1.2171349647799
17	1911551	145	1.2309860007042
17	1914508	145.1	1.2140111471848
17	1917420	145.2	0.973
17	1920330	145.3	1.1531726773869
17	1923220	145.4	1.3120993841041
17	1926169	145.5	0.973
17	1929055	145.6	1.3479825502484
17	1931959	145.7	0.973
17	1934908	145.8	1.2555943507482
17	1937861	145.9	1.2507423424484
17	1940801	146	0.973
17	1943704	146.1	1.1502170595892
16	358	1.4	0.90381877781263
16	413	1.5	0.44516527537529
16	468	1.6	0.40293141856738
16	523	1.7	-0.28353021674169
16	578	1.8	0.18252091103932
16	633	1.9	-0.027187251544092
16	690	2	-0.24830004824455
16	745	2.1	0.59344484341434
16	800	2.2	-0.011175859900605
16	855	2.3	0.046465901282824
16	910	2.4	-0.56416766924991
16	965	2.5	0.037821587466169
16	1020	2.6	-0.06378846414413
16	1075	2.7	-0.07542097058225
16	1130	2.8	0.12462484656782
16	1185	2.9	0.23449944516566
16	1242	3	-0.22156237003704
16	1297	3.1	0.45989913325886
16	1352	3.2	-0.36225457863313
16	1407	3.3	0.34483870242386
16	1462	3.4	-0.5564691896628
16	1517	3.5	0.29362541002532
16	1572	3.6	0.074434991014034
16	1627	3.7	0.10424050673868
16	1682	3.8	-0.35394310770142
16	1737	3.9	0.2208912156574
16	1794	4	-0.077974730811547
16	1849	4.1	0.38169732660107
16	1904	4.2	-0.41586507140892
16	1959	4.3	0.0038470683244252
16	2014	4.4	-0.0033599140200136
16	2069	4.5	-0.22695421988222
16	2124	4.6	0.18189428988585
16	2179	4.7	0.22382805262977
16	2234	4.8	-0.053836146253161
16	2289	4.9	-0.18097169635843
16	2346	5	0.44264286730645
16	2401	5.1	-0.42120919776304
16	2456	5.2	-0.0026883072375017
16	2511	5.3	0.31962174446865
16	2566	5.4	0.056566849525552
16	2621	5.5	-0.12951531340756
16	2676	5.6	-0.03352946094108
16	2731	5.7	-0.14339305732089
16	2786	5.8	0.091385598999396
16	2841	5.9	-0.38178633225875
16	2898	6	0.61550626738204
16	2953	6.1	-0.074188855392598
16	3008	6.2	0.033032810703539
16	3063	6.3	-0.34152695200949
16	3118	6.4	0.27765050051837
16	3173	6.5	-0.14792998020615
16	3228	6.6	0.15408693385931
16	3283	6.7	0.059344445536327
16	3338	6.8	0.033746143971156
16	3438	6.9	-0.37913503668581
16	3540	7	-0.084733256759744
16	3640	7.1	0.28445855277823
16	3740	7.2	0.24663439156333
16	3840	7.3	-0.57248143388683
16	3940	7.4	-0.093055619638309
16	4040	7.5	0.3495095837732
16	4140	7.6	0.2867614620805
16	4240	7.7	-0.47468672807251
16	4397	7.8	0.20663379157971
16	4554	7.9	0.05712948089543
16	4713	8	-0.22862272033106
16	4870	8.1	-0.15942658792483
16	5027	8.2	0.24517125501815
16	5184	8.3	0.039041600474674
16	5341	8.4	-0.28624211877791
16	5498	8.5	0.4468326722013
16	5655	8.6	-0.39209966327892
16	5812	8.7	0.00066385901946964
16	5969	8.8	0.30803150730208
16	6126	8.9	0.16172242434954
16	6354	9	0.012846317582038
16	6580	9.1	-0.40885573414724
16	6806	9.2	-0.014522688191694
16	7032	9.3	0.12767693745748
16	7258	9.4	-0.07486366068608
16	7484	9.5	-0.013488683746092
16	7710	9.6	0.19976328864383
16	7936	9.7	-0.117675509763
16	8162	9.8	-0.0049945885419023
16	8388	9.9	-0.25529066414391
16	8616	10	0.23421880468959
16	8843	10.1	0.22030121164991
16	9069	10.2	-0.056866256798256
16	9295	10.3	0.17221399822221
16	9521	10.4	-0.15178652489946
16	9747	10.5	-0.20774593819321
16	9973	10.6	0.2999570366228
16	10199	10.7	-0.14902933099721
16	10425	10.8	-0.070248331919882
16	10651	10.9	-0.26559728867142
16	10879	11	0.054404502184804
16	11105	11.1	0.47128277672325
16	11331	11.2	-0.42816533807329
16	11557	11.3	0.14579880128925
16	11783	11.4	-0.28713486972265
16	12009	11.5	0.18091621637318
16	12235	11.6	0.48988030256522
16	12461	11.7	-0.23843756223667
16	12687	11.8	0.014287668778303
16	12913	11.9	0.09681061848015
16	13141	12	-0.18295447969447
16	13367	12.1	-0.3226599419981
16	13593	12.2	0.10030350321257
16	13819	12.3	0.14334421026029
16	14045	12.4	0.21525420225872
16	14271	12.5	-0.22406072481923
16	14497	12.6	0.024769126159501
16	14723	12.7	0.2555898824034
16	14949	12.8	-0.18466391160877
16	15175	12.9	0.13732816344903
16	15403	13	-0.16213973835369
16	15629	13.1	0.076448519959942
16	15855	13.2	-0.3311539901511
16	16081	13.3	0.27841440524854
16	16307	13.4	-0.18125006479548
16	16533	13.5	0.03584633975859
16	16759	13.6	0.30129088926414
16	16985	13.7	-0.10711428347147
16	17211	13.8	-0.09461618125594
16	17437	13.9	0.17095080483058
16	17665	14	-0.28217876501407
16	17891	14.1	0.32248040079139
16	18117	14.2	-0.46165967133776
16	18343	14.3	0.25145617578851
16	18569	14.4	0.25312944991229
16	18795	14.5	-0.21519522172942
16	19021	14.6	-0.23889225154158
16	19247	14.7	0.20152857905487
16	19473	14.8	-0.1299271879058
16	19699	14.9	0.36194057093881
16	19927	15	0.040588040752076
16	20153	15.1	-0.44478624412376
16	20379	15.2	0.38046858195836
16	20605	15.3	-0.25487887356172
16	20831	15.4	0.20663960199777
16	21057	15.5	0.18783709318895
16	21283	15.6	-0.56708921070418
16	21509	15.7	0.17126939217431
16	21735	15.8	0.0041409995497421
16	21961	15.9	0.16825567678703
16	22189	16	-0.37549359921185
16	22415	16.1	0.055324412662434
16	22641	16.2	0.20907108070484
16	22867	16.3	-0.083150321895824
16	23174	16.4	-0.16974520048178
16	23481	16.5	0.075514011162643
16	23788	16.6	0.23824823826241
16	24095	16.7	0.0064998611277489
16	24402	16.8	-0.0034639902878553
16	24709	16.9	-0.26580019896048
16	25018	17	0.27039851184883
16	25325	17.1	-0.36577362205005
16	25632	17.2	0.63351703785075
16	25939	17.3	-0.60341083347642
16	26246	17.4	0.050302710668702
16	26553	17.5	-0.01331815777424
16	26860	17.6	0.39823795781962
16	27167	17.7	-0.16096874201644
16	27474	17.8	0.031888369509641
16	27781	17.9	-0.26726045018424
16	28090	18	0.11585451801592
16	28397	18.1	-0.014805049835962
16	28704	18.2	0.46643816652552
16	29011	18.3	-0.53437763692475
16	29318	18.4	0.20025927369716
16	29625	18.5	0.0016726076460638
16	29932	18.6	0.0091115397582264
16	30239	18.7	0.21904330933467
16	30546	18.8	-0.26344202633481
16	30853	18.9	0.26343995155508
16	31162	19	0.046951317118429
16	31469	19.1	-0.49174881165123
16	31776	19.2	0.25977262557717
16	32083	19.3	-0.20134603740492
16	32390	19.4	-0.035221759915454
16	32697	19.5	0.37090141073956
16	33004	19.6	-0.2256568228606
16	33311	19.7	-0.21195230381434
16	33618	19.8	0.54029274130395
16	33925	19.9	-0.60020584027775
16	34234	20	0.15388968232502
16	34541	20.1	0.42217013105983
16	34848	20.2	-0.28616516226773
16	35155	20.3	-0.10307012077343
16	35462	20.4	0.40850178645794
16	35769	20.5	-0.10079562990642
16	36076	20.6	-0.19159831669337
16	36383	20.7	0.33375664610907
16	36690	20.8	-0.23872311479257
16	36997	20.9	0.091371647593204
16	37306	21	-0.04542794097991
16	37613	21.1	-0.22913646615861
16	37920	21.2	-0.11236944103277
16	38227	21.3	0.2924353510025
16	38534	21.4	-0.32861865992244
16	38841	21.5	0.021792130751741
16	39148	21.6	-0.10162749240408
16	39455	21.7	0.15987526227643
16	39762	21.8	0.33433970464911
16	40069	21.9	-0.44433098810259
16	40378	22	0.46444895318321
16	40685	22.1	-0.090169348146041
16	40992	22.2	0.16964641383513
16	41299	22.3	-0.18085273865533
16	41606	22.4	-0.29256261396869
16	41913	22.5	-0.06279688790932
16	42220	22.6	0.22958403149257
16	42527	22.7	0.024804468396018
16	42834	22.8	0.25750939530553
16	43541	22.9	-0.3890575160363
16	43943	23	0.18163628507561
16	44343	23.1	0.044935979531147
16	44743	23.2	-0.41442027367238
16	45143	23.3	0.39780549365484
16	45543	23.4	-0.391209537338
16	45943	23.5	0.45812100692678
16	46343	23.6	-0.21892763341182
16	46743	23.7	0.40065717152579
16	47143	23.8	-0.32205650673455
16	47599	23.9	-0.076342195906263
16	48001	24	-0.011557612581075
16	48401	24.1	0.24744981783442
16	48801	24.2	-0.12327782007762
16	49201	24.3	0.25744803036408
16	49601	24.4	-0.56713701164376
16	50001	24.5	0.54893653108997
16	50401	24.6	-0.42253098072251
16	50801	24.7	0.085941399124243
16	51201	24.8	-0.046453198916019
16	51601	24.9	0.23147219924593
16	52003	25	-0.45637276440781
16	52403	25.1	0.5301264958689
16	52803	25.2	-0.45301900212912
16	53203	25.3	0.0057785597164184
16	53603	25.4	0.52143498323858
16	54003	25.5	-0.55476628476754
16	54403	25.6	0.46753334657599
16	54803	25.7	-0.44428463394676
16	55203	25.8	0.51419063222258
16	55603	25.9	-0.38235624330506
16	56005	26	0.12420211294537
16	56405	26.1	-0.26420156856249
16	56805	26.2	0.40103961057159
16	57205	26.3	-0.040055454883259
16	57605	26.4	0.059097758720681
16	58005	26.5	-0.12812645889224
16	58405	26.6	0.031277880771086
16	58805	26.7	-0.37353287447736
16	59205	26.8	0.22096162590767
16	59605	26.9	-0.24095071744846
16	60007	27	0.22724786815363
16	60407	27.1	-0.064250638469174
16	60807	27.2	-0.00049209144587392
16	61207	27.3	0.16894049929558
16	61607	27.4	0.13672108212227
16	62007	27.5	-0.36321699460839
16	62407	27.6	0.046680033523847
16	62807	27.7	0.086228598795262
16	63207	27.8	0.026096636591117
16	63607	27.9	-0.16694308190684
16	64009	28	0.26376872265246
16	64409	28.1	-0.26206322525266
16	64809	28.2	0.43184866145667
16	65209	28.3	-0.33229446142084
16	65609	28.4	0.23542650499925
16	66009	28.5	-0.19351975934114
16	66409	28.6	-0.12492684294961
16	66809	28.7	0.55789270053437
16	67209	28.8	-0.038390791289404
16	67609	28.9	-0.012545204339807
16	68011	29	-0.57911157831162
16	68411	29.1	0.51850827084208
16	68811	29.2	-0.36802819587239
16	69211	29.3	0.44112263405825
16	69611	29.4	-0.040954980391283
16	70011	29.5	-0.012384839485298
16	70516	29.6	-0.51052556211491
16	71021	29.7	0.4136004229723
16	71526	29.8	0.098124253660596
16	72031	29.9	-0.35222205802307
16	72538	30	0.14701032535716
16	73043	30.1	0.22499665954254
16	73548	30.2	-0.49996559569586
16	74053	30.3	0.072928701087625
16	74558	30.4	0.041996063696894
16	75063	30.5	-0.080784786971182
16	75568	30.6	-0.093003452800784
16	76073	30.7	0.58522405565276
16	76578	30.8	-0.1878945933034
16	77083	30.9	-0.37197183491015
16	77590	31	0.14904496088598
16	78095	31.1	-0.042435350607977
16	78600	31.2	0.37570692301314
16	79105	31.3	-0.066151115525928
16	79610	31.4	-0.33421211879209
16	80115	31.5	-0.066431535297953
16	80620	31.6	0.073253617544347
16	81125	31.7	0.06835293849387
16	81630	31.8	-0.1760869493915
16	82135	31.9	0.27094923716504
16	82642	32	0.11402491412203
16	83147	32.1	0.097129180115492
16	83652	32.2	-0.093369735016797
16	84157	32.3	0.13859976073339
16	84662	32.4	0.055412693634733
16	85167	32.5	-0.17631199362869
16	85672	32.6	-0.14754574674751
16	86177	32.7	0.026018131272092
16	86682	32.8	-0.21365307750077
16	87187	32.9	-0.049779364942675
16	87694	33	0.37449484290038
16	88199	33.1	-0.22702660288713
16	88704	33.2	0.1208317535606
16	89209	33.3	-0.083849348528828
16	89714	33.4	0.031442835784725
16	90219	33.5	-0.12163207106318
16	90724	33.6	-0.033923483149718
16	91229	33.7	0.35508955463431
16	91734	33.8	-0.15459053732532
16	92239	33.9	-0.10302928454217
16	92746	34	0.21274233828687
16	93251	34.1	0.13242519990955
16	93756	34.2	-0.41039534424069
16	94261	34.3	0.20820901700063
16	94766	34.4	-0.19297753234342
16	95271	34.5	0.40051615085556
16	95776	34.6	-0.15413818974695
16	96281	34.7	-0.41826499881507
16	96786	34.8	0.29450171374871
16	97291	34.9	-0.11594943061937
16	97798	35	0.34279336088932
16	98303	35.1	-0.24068145802529
16	98808	35.2	-0.28361718011891
16	99313	35.3	0.44812730888629
16	99818	35.4	-0.10836793452553
16	100323	35.5	-0.14049527202992
16	100828	35.6	0.0035645398181972
16	101333	35.7	-0.036779163282417
16	101838	35.8	-0.021417017301752
16	102343	35.9	-0.12524917902839
16	102850	36	0.043409151516649
16	103355	36.1	0.37189858768316
16	103977	36.2	-0.32069073883273
16	104599	36.3	0.072846881165687
16	105221	36.4	0.065669922817808
16	105843	36.5	0.212879979679
16	106465	36.6	0.14215474527898
16	107087	36.7	-0.32968997483193
16	107709	36.8	0.013047481641277
16	108331	36.9	-0.26359986578528
16	108955	37	0.63980518542748
16	109577	37.1	-0.38630747569389
16	110199	37.2	0.24984834114245
16	110821	37.3	0.030214443460055
16	111443	37.4	0.078190632565465
16	112065	37.5	-0.12613077512166
16	112687	37.6	-0.19543022661108
16	113309	37.7	0.073393009531879
16	113931	37.8	0.25271445176461
16	114553	37.9	-0.52604895722147
16	115177	38	0.23773780946309
16	115799	38.1	0.32640285030033
16	116421	38.2	-0.44435586007441
16	117043	38.3	0.25895990418374
16	117665	38.4	-0.33453048316814
16	118287	38.5	-0.010035945322469
16	118909	38.6	-0.075887835959696
16	119531	38.7	0.36774626464143
16	120153	38.8	0.025227052942178
16	120775	38.9	-0.16287582871478
16	121399	39	-0.22527813174141
16	122021	39.1	0.28085123550328
16	122643	39.2	0.067405109520122
16	123265	39.3	0.23624331208541
16	123887	39.4	-0.43987298106206
16	124509	39.5	-0.22174445459516
16	125131	39.6	0.20273771321323
16	125753	39.7	0.28825511754904
16	126375	39.8	0.14720766145426
16	126997	39.9	-0.023309598327614
16	127621	40	-0.42170434494943
16	128244	40.1	0.30624410363897
16	128866	40.2	-0.42962085960122
16	129488	40.3	0.32038935961383
16	130110	40.4	-0.23599311874326
16	130732	40.5	0.26210302635769
16	131354	40.6	-0.37755244055815
16	131976	40.7	0.14709290230207
16	132598	40.8	-0.08966465571171
16	133220	40.9	-0.012137465172499
16	133844	41	0.60194468161272
16	134466	41.1	-0.013473541346483
16	135088	41.2	-0.40568538226782
16	135710	41.3	-0.14692751347967
16	136332	41.4	-0.059571438921719
16	136954	41.5	0.5077697305953
16	137576	41.6	-0.23933538824268
16	138198	41.7	0.18742559008792
16	138820	41.8	0.14377448290664
16	139442	41.9	0.022832999820821
16	140066	42	-0.2442951787897
16	140688	42.1	0.14250671035067
16	141310	42.2	-0.064356643350847
16	141932	42.3	-0.10536796536245
16	142554	42.4	-0.35631928702868
16	143176	42.5	0.10454147672539
16	143798	42.6	-0.11960741103394
16	144420	42.7	0.34752194963706
16	145171	42.8	0.17504659222646
16	145894	42.9	-0.25758100576543
16	146647	43	0.17824233558106
16	147398	43.1	-0.027146882429303
16	148120	43.2	0.21284709978823
16	148842	43.3	-0.052405820234627
16	149593	43.4	-0.40088536415068
16	150344	43.5	-0.063643868876777
16	151095	43.6	-0.036630815884564
16	151846	43.7	-0.11967304114175
16	152597	43.8	0.1185842823664
16	153348	43.9	-0.062369357975613
16	154101	44	0.17181402605881
16	154852	44.1	0.27400367867408
16	155566	44.2	-0.29359810950053
16	156280	44.3	0.0053521850430927
16	157023	44.4	0.07554870826425
16	157766	44.5	-0.077148146455228
16	158509	44.6	0.1009241538769
16	159252	44.7	-0.080984658820347
16	159995	44.8	0.35595170063769
16	160738	44.9	-0.088121949132378
16	161454	45	-0.15840110087689
16	162197	45.1	0.12778774511793
16	162940	45.2	-0.4495523189285
16	163683	45.3	0.13935022660816
16	164426	45.4	-0.15645733704635
16	165169	45.5	0.31472110244471
16	165912	45.6	0.19275687356842
16	166655	45.7	-0.29574091167888
16	167398	45.8	0.26855336133546
16	168141	45.9	-0.44823084139757
16	168857	46	0.31305260814002
16	169600	46.1	-0.1448407154789
16	170343	46.2	0.28964726871992
16	171086	46.3	-0.35250929116349
16	171800	46.4	0.36176930783161
16	172543	46.5	-0.023359446559981
16	173286	46.6	-0.32212381661844
16	174000	46.7	-0.051337708039987
16	174743	46.8	0.36215303294335
16	175486	46.9	-0.35347459682574
16	176231	47	0.11340800524017
16	176974	47.1	0.21760402321686
16	177688	47.2	-0.43712211045204
16	178431	47.3	0.52467630464687
16	179174	47.4	-0.48741510739395
16	179917	47.5	0.2367754114352
16	180660	47.6	-0.12726994237811
16	181403	47.7	-0.14398567064847
16	182146	47.8	0.14494872803981
16	182889	47.9	-0.10598260948124
16	183634	48	0.30013378014296
16	184348	48.1	0.12502499755808
16	185091	48.2	-0.11813337801464
16	185834	48.3	-0.2554101264751
16	186577	48.4	0.50092648889404
16	187320	48.5	-0.57865804927941
16	188063	48.6	0.2874293718681
16	188806	48.7	0.077587634991181
16	189520	48.8	0.288507183561
16	190263	48.9	-0.5209009547899
16	191008	49	-0.089608470443636
16	191722	49.1	0.53281195691347
16	192465	49.2	0.022788965240277
16	193208	49.3	-0.033211008121725
16	194061	49.4	-0.58615830170715
16	194945	49.5	0.14877128059096
16	195829	49.6	-0.073018209918194
16	196682	49.7	0.45426103606587
16	197566	49.8	-0.52892850928604
16	198419	49.9	0.035413212349846
16	199274	50	0.58077996234513
16	200158	50.1	-0.58601791841081
16	201042	50.2	0.097708676670056
16	201895	50.3	0.54393516491271
16	202779	50.4	-0.58924530765378
16	203663	50.5	0.26752788867776
16	204516	50.6	-0.25434475683141
16	205400	50.7	0.24987388622119
16	206253	50.8	-0.23409751770992
16	207137	50.9	0.18964931449672
16	208023	51	-0.23907376614968
16	208907	51.1	0.55042299322344
16	209791	51.2	0.051456352230161
16	210644	51.3	-0.6286793875107
16	211528	51.4	0.54402990289317
16	212381	51.5	-0.014557161840558
16	213265	51.6	-0.014026205139492
16	214118	51.7	-0.13950237803834
16	215002	51.8	-0.067148858862411
16	215886	51.9	0.33726320317429
16	216741	52	-0.00079199590901302
16	217625	52.1	-0.35107591182977
16	218509	52.2	0.21326151424243
16	219393	52.3	-0.012964110000111
16	220246	52.4	-0.17404188466672
16	221130	52.5	0.12321000265527
16	222014	52.6	-0.32793322898215
16	222898	52.7	0.0023330261077104
16	223782	52.8	0.07407333501356
16	224666	52.9	-0.14410390641489
16	225552	53	-0.068831332221939
16	226405	53.1	0.26140992009055
16	227258	53.2	-0.2545175186242
16	228142	53.3	0.23028047613075
16	229026	53.4	-0.08143220572189
16	229910	53.5	-0.076987117710006
16	230763	53.6	0.3745375818754
16	231616	53.7	-0.37026613151991
16	232469	53.8	0.24868008864966
16	233353	53.9	-0.034261421953692
16	234239	54	-0.052577582634208
16	235123	54.1	0.3702783847176
16	235976	54.2	-0.6060193006609
16	236829	54.3	0.429461117407
16	237713	54.4	0.077526763844717
16	238597	54.5	-0.31060502531343
16	239481	54.6	-0.10031448327936
16	240334	54.7	0.52869305153662
16	241218	54.8	-0.48015702664593
16	242071	54.9	0.36070133371848
16	242957	55	-0.041015595262355
16	243841	55.1	0.035861606172856
16	244694	55.2	0.15666502974151
16	245578	55.3	-0.47738213033881
16	246462	55.4	0.38099970632983
16	247346	55.5	-0.51892618972084
16	248199	55.6	0.49317777803582
16	249083	55.7	-0.51863646060358
16	249967	55.8	0.11886129553507
16	251004	55.9	-0.06086519553921
16	252043	56	0.019123978886961
16	253047	56.1	0.43295741213822
16	254084	56.2	-0.0097754655548177
16	255121	56.3	-0.29913982612521
16	256158	56.4	0.3219182069491
16	257195	56.5	0.075436355028715
16	258232	56.6	-0.5944809853746
16	259269	56.7	0.38536388262097
16	260306	56.8	-0.41055061463137
16	261343	56.9	0.55566560169811
16	262382	57	-0.32475698616407
16	263419	57.1	0.14445815161
16	264456	57.2	-0.062062145702333
16	265493	57.3	-0.081849999130807
16	266530	57.4	0.091924444940459
16	267567	57.5	0.019998140406743
16	268604	57.6	0.30989256128022
16	269641	57.7	-0.010749538907677
16	270678	57.8	-0.068924463832647
16	271715	57.9	-0.5085390316607
16	272721	58	0.0021194256583423
16	273725	58.1	0.26966964166301
16	274762	58.2	-0.29803535273661
16	275799	58.3	0.11306814348144
16	276803	58.4	0.16314759349269
16	277840	58.5	0.25759809957688
16	278877	58.6	-0.098401829179946
16	279914	58.7	-0.19855264933236
16	280951	58.8	0.29038085356458
16	281955	58.9	-0.11343785768582
16	282994	59	-0.0084204854728243
16	284031	59.1	-0.44953030527621
16	285068	59.2	0.55183480775062
16	286106	59.3	-0.3416409087044
16	287143	59.4	0.37353219587304
16	288147	59.5	-0.22629742646435
16	289184	59.6	0.29556260625314
16	290221	59.7	-0.56107606700001
16	291258	59.8	0.43913133607324
16	292295	59.9	-0.26062454643478
16	293334	60	0.24961760791484
16	294338	60.1	-0.2365400500518
16	295375	60.2	0.075955648369725
16	296412	60.3	0.046747546649486
16	297449	60.4	0.21764799425404
16	298486	60.5	-0.50361089476307
16	299523	60.6	-0.1147001220185
16	300560	60.7	0.22211694433483
16	301564	60.8	0.25078873651283
16	302568	60.9	-0.48511808709009
16	303607	61	0.12831897070605
16	304644	61.1	0.39390272076061
16	305681	61.2	-0.33601750053802
16	306685	61.3	-0.18507452574946
16	307689	61.4	0.20694106335415
16	308693	61.5	0.19091856180846
16	309730	61.6	0.11606875777943
16	310767	61.7	-0.49858709373641
16	311804	61.8	0.15476448218882
16	312841	61.9	0.057256381195556
16	313847	62	0.025576095342532
16	314884	62.1	0.26252390638951
16	315921	62.2	-0.035809417022392
16	316958	62.3	-0.0276970177462
16	317995	62.4	-0.28458178049833
16	319032	62.5	0.22076669685905
16	320069	62.6	-0.29779742229342
16	321106	62.7	0.2488805980344
16	322143	62.8	0.25977389498924
16	323180	62.9	-0.53590050439299
16	324219	63	0.22129116469942
16	325256	63.1	-0.01914816319994
16	326293	63.2	-0.26481810669389
16	327330	63.3	0.56127917099123
16	328334	63.4	-0.43927176270194
16	329371	63.5	0.071225875742837
16	330408	63.6	0.17815778911528
16	331445	63.7	0.14173744954557
16	332482	63.8	-0.34655175259104
16	333519	63.9	0.28136875512751
16	334558	64	-0.28671832308949
16	335595	64.1	0.1384434883625
16	336599	64.2	-0.26292613086601
16	337603	64.3	0.51176864346619
16	338640	64.4	0.040984684084024
16	339677	64.5	0.031721313684507
16	340714	64.6	-0.23385676079973
16	341751	64.7	-0.32850161983838
16	342788	64.8	0.38016782653156
16	343825	64.9	-0.067936347558213
16	344864	65	-0.061850600791837
16	345901	65.1	-0.095309074094985
16	346905	65.2	0.26968067912902
16	347909	65.3	0.057257771711901
16	348946	65.4	-0.31090559787117
16	349983	65.5	0.046582682989538
16	351020	65.6	-0.018701471465952
16	352057	65.7	-0.083140110978597
16	353061	65.8	0.10223333681804
16	354098	65.9	-0.15140790750997
16	355137	66	0.3488826316445
16	356174	66.1	-0.12392297956265
16	357211	66.2	0.17721667213158
16	358248	66.3	-0.47674952770143
16	359285	66.4	0.45816516536029
16	360322	66.5	0.096181083871569
16	361359	66.6	-0.34820120070233
16	362363	66.7	0.34173166851461
16	363400	66.8	-0.22728304773207
16	364396	66.9	-0.30484519633723
16	365427	67	0.60087069529497
16	366456	67.1	-0.67354154937978
16	367452	67.2	0.29170557811287
16	368448	67.3	-0.0015476728246244
16	369439	67.4	-0.21984765933464
16	370460	67.5	0.28836469945317
16	371481	67.6	0.04020646350303
16	372502	67.7	-0.0054971200168219
16	373523	67.8	0.047284528328519
16	374544	67.9	-0.098671708191331
16	375567	68	-0.23438989430562
16	376588	68.1	0.10302007366489
16	377609	68.2	0.0096350526695854
16	378600	68.3	0.26215255169922
16	379621	68.4	-0.1520179297788
16	380642	68.5	0.0046453286712578
16	381655	68.6	0.24412859978232
16	382668	68.7	-0.019014166254134
16	383681	68.8	0.017159476960336
16	384686	68.9	0.03103633191333
16	385693	69	-0.61695350434295
16	386698	69.1	0.097009818839271
16	387703	69.2	0.52749059201839
16	389224	69.3	-0.11492543433431
16	390229	69.4	0.0899624855568
16	391234	69.5	-0.11392805398726
16	392239	69.6	-0.39844099907593
16	393236	69.7	0.26756699727331
16	394203	69.8	-0.34558326248468
16	395200	69.9	0.40124754919412
16	396199	70	-0.38744096301444
16	397196	70.1	0.13343225420815
16	398163	70.2	-0.10371610033973
16	399238	70.3	0.10788684853146
16	400235	70.4	0.017589185800817
16	401232	70.5	0.30080227281562
16	402229	70.6	-0.38263070051067
16	403226	70.7	0.24747690881163
16	404223	70.8	0.28875078763425
16	405220	70.9	-0.2874162470107
16	406219	71	0.21016744237083
16	407208	71.1	-0.27260921455713
16	408167	71.2	0.27661027011669
16	409156	71.3	0.045205307348319
16	410145	71.4	0.027598892726626
16	411134	71.5	-0.57767070603505
16	412123	71.6	0.15474987174255
16	413112	71.7	0.30078224663157
16	414101	71.8	-0.21776490660462
16	415090	71.9	0.29821069603915
16	416081	72	-0.48476705253254
16	417070	72.1	0.19092506974832
16	418059	72.2	0.14235522798521
16	419048	72.3	-0.42728324672983
16	420007	72.4	0.073885413197179
16	420996	72.5	0.331044641401
16	421985	72.6	-0.37608539100296
16	422966	72.7	0.42317750679407
16	423947	72.8	-0.34077879309835
16	424928	72.9	0.044906561217632
16	425911	73	-0.0039712580878071
16	426892	73.1	0.52281388036338
16	427873	73.2	-0.19507348624757
16	428854	73.3	-0.14810405377324
16	429835	73.4	0.070247272863828
16	430786	73.5	0.19025214003503
16	431767	73.6	-0.5858705230316
16	432748	73.7	0.6351935441166
16	433699	73.8	-0.43716719325554
16	434680	73.9	0.15671619298195
16	435633	74	0.14282839660559
16	436614	74.1	-0.44329272398803
16	437595	74.2	0.34879640427082
16	438546	74.3	0.073644655478549
16	439527	74.4	-0.13253351709055
16	440500	74.5	-0.2505692706715
16	441443	74.6	0.38336498514077
16	442386	74.7	0.16946931945212
16	443359	74.8	-0.071851371871567
16	444302	74.9	-0.24090748597195
16	445277	75	0.30623445959969
16	446250	75.1	-0.32826596062579
16	447223	75.2	0.14108641027835
16	448196	75.3	-0.45707515980919
16	449139	75.4	0.4438387453168
16	450082	75.5	0.16567800679089
16	451055	75.6	-0.32747004701782
16	451998	75.7	-0.18981138984802
16	452971	75.8	0.31418503381752
16	453944	75.9	-0.21159871814436
16	454889	76	0.21173519845535
16	455832	76.1	0.19099355575034
16	456805	76.2	-0.10811196973211
16	457778	76.3	-0.14155532246352
16	458751	76.4	-0.028487270335769
16	459720	76.5	0.20534650005478
16	460689	76.6	-0.4596366870424
16	461624	76.7	0.10705384112145
16	462593	76.8	0.41645820973725
16	463528	76.9	-0.41712041032345
16	464499	77	0.36922526390602
16	465468	77.1	-0.49118278887666
16	466437	77.2	0.44794081930175
16	467406	77.3	-0.24613598296936
16	468371	77.4	-0.15526239246052
16	469340	77.5	0.04842587287486
16	470309	77.6	0.47328381155644
16	471278	77.7	-0.30981977712751
16	472213	77.8	-0.073801682932146
16	473148	77.9	-0.016305675348527
16	474085	78	-0.21653185233137
16	475054	78.1	0.018226449901704
16	476023	78.2	0.49158557909929
16	476958	78.3	0.08208364031614
16	477927	78.4	-0.5043343720091
16	478896	78.5	0.1901062793978
16	479831	78.6	0.33161577157443
16	480800	78.7	-0.20343440183852
16	481735	78.8	0.20284965899514
16	482704	78.9	-0.52591761211968
16	483675	79	0.21680032869982
16	484610	79.1	-0.066807851706268
16	485579	79.2	0.1971062153138
16	486548	79.3	-0.28304182940499
16	487517	79.4	0.31287276312166
16	488486	79.5	0.12929650903162
16	489455	79.6	-0.37698322250637
16	490424	79.7	0.16119562513066
16	491389	79.8	-0.019447522774703
16	492324	79.9	-0.0033835392160753
16	493295	80	-0.32522178258255
16	494266	80.1	0.29760448152148
16	495209	80.2	0.10865948263219
16	496180	80.3	0.010453818120166
16	497123	80.4	-0.34929749979508
16	498094	80.5	0.27298291356096
16	499065	80.6	-0.20141672284808
16	500032	80.7	0.16503122266537
16	501003	80.8	-0.31660121668311
16	501974	80.9	0.32993515730292
16	502919	81	-0.19361898222188
16	503862	81.1	0.042798956403405
16	504833	81.2	-0.15663792259552
16	505776	81.3	0.11922048223722
16	506747	81.4	0.52188900735928
16	507718	81.5	-0.35591859567729
16	508660	81.6	0.049120025263014
16	509631	81.7	-0.1102278707549
16	510602	81.8	0.28962213271168
16	511545	81.9	-0.13850978996036
16	512518	82	0.10171083170766
16	513461	82.1	-0.39069589903294
16	514396	82.2	-0.0023447326384485
16	515362	82.3	0.44204501933159
16	516328	82.4	-0.45056623025125
16	517263	82.5	0.17846696007634
16	518229	82.6	0.3221982018052
16	519190	82.7	-0.47748761943593
16	520117	82.8	-0.12941558848575
16	521078	82.9	0.18956219169518
16	522041	83	0.43339918839693
16	523002	83.1	-0.18286357792224
16	523963	83.2	-0.22831421018863
16	524924	83.3	0.13410986882971
16	525885	83.4	-0.25570087374136
16	526846	83.5	0.05215438205697
16	527807	83.6	0.04477965752206
16	528768	83.7	0.45962547543847
16	529729	83.8	-0.44207456780391
16	530656	83.9	-0.063633758044388
16	531619	84	0.50479022562892
16	532580	84.1	-0.17120987015207
16	533507	84.2	-0.23455330907988
16	534468	84.3	-0.070457167910516
16	535429	84.4	-0.11091994965682
16	536390	84.5	0.25906350977797
16	537351	84.6	-0.078638726780709
16	538312	84.7	0.20861587270499
16	539273	84.8	-0.0040581027860753
16	540234	84.9	-0.22896801189442
16	541162	85	-0.097838043358125
16	542123	85.1	0.50805222918926
16	543084	85.2	-0.17907965973589
16	544011	85.3	-0.23283592470559
16	544972	85.4	0.14345951300735
16	545898	85.5	0.30091760466651
16	546859	85.6	-0.67086347052181
16	547820	85.7	0.66331121844188
16	548781	85.8	-0.32719017860169
16	549742	85.9	-0.30542570247134
16	550670	86	0.52030824849175
16	551596	86.1	-0.43659200616983
16	552523	86.2	0.13972549527858
16	553484	86.3	0.25008483741355
16	554445	86.4	-0.39006738968763
16	555406	86.5	0.043600797814887
16	556367	86.6	0.51892592390585
16	557318	86.7	-0.10910203693331
16	558279	86.8	-0.28338448448469
16	559205	86.9	0.026777339937529
16	560133	87	0.18733311622378
16	561094	87.1	-0.37504449638719
16	562020	87.2	0.25087684027514
16	562981	87.3	-0.24988659085162
16	563907	87.4	0.3587336022368
16	564868	87.5	-0.19579114111063
16	565794	87.6	-0.020769739866309
16	566755	87.7	0.26779056141903
16	567716	87.8	-0.31148410473381
16	568677	87.9	0.45166710834666
16	569605	88	-0.099164588674385
16	570566	88.1	-0.5002571871349
16	571527	88.2	0.10426467569131
16	572488	88.3	-0.10805846880733
16	573414	88.4	0.40754239291548
16	574375	88.5	-0.38765806594812
16	575301	88.6	0.43725702724057
16	576228	88.7	0.080836769807826
16	577189	88.8	-0.15192478652656
16	578150	88.9	-0.10431327585441
16	579113	89	0.027571220804627
16	580074	89.1	-0.2904158108221
16	581035	89.2	0.073859769003723
16	581962	89.3	0.15326544412852
16	582923	89.4	-0.0085033975968463
16	583849	89.5	-0.2378691744525
16	584810	89.6	0.034531072985071
16	585771	89.7	0.31989113049349
16	586732	89.8	-0.066908159189754
16	587693	89.9	-0.11740092142847
16	588656	90	0.041663344341536
16	589582	90.1	-0.20175044547715
16	590543	90.2	0.4123081474164
16	591469	90.3	-0.38044972364635
16	592430	90.4	0.0089181842566988
16	593391	90.5	0.48563409541708
16	594352	90.6	-0.3268538886914
16	595278	90.7	0.010461106527753
16	596239	90.8	0.15684561335042
16	597200	90.9	-0.32229139825277
16	598163	91	0.44917624472873
16	599124	91.1	-0.030083461832773
16	600050	91.2	-0.4250395482005
16	601011	91.3	0.062797021948631
16	601972	91.4	0.169688374121
16	603091	91.5	0.14794218069356
16	604210	91.6	-0.23762106591473
16	605329	91.7	0.38459812462356
16	606448	91.8	-0.33390263237784
16	607529	91.9	-0.16192168809034
16	608611	92	0.32648361747205
16	609730	92.1	-0.17195109507561
16	610849	92.2	-0.21227019703171
16	611968	92.3	0.32701700531308
16	613048	92.4	-0.12746892930914
16	614167	92.5	-0.13902799966874
16	615286	92.6	-0.062384755195428
16	616405	92.7	0.017375596184541
16	617521	92.8	0.13875423707456
16	618640	92.9	0.11871314329457
16	619761	93	0.095676513511636
16	620880	93.1	0.2061757445012
16	621999	93.2	-0.092254870105535
16	623118	93.3	0.076269176012524
16	624237	93.4	-0.46109560320878
16	625356	93.5	0.33041041412313
16	626475	93.6	-0.50435317292189
16	627594	93.7	0.56984356197063
16	628713	93.8	-0.34027814771333
[...]
20	528768	83.7	2340.3720430608
20	529729	83.8	2340.2869616426
20	530656	83.9	2340.2031458974
20	531619	84	2340.1196209488
20	532580	84.1	2340.0382516587
20	533507	84.2	2339.9544574958
20	534468	84.3	2339.8711087813
20	535429	84.4	2339.7866527572
20	536390	84.5	2339.7032149229
20	537351	84.6	2339.6203835647
20	538312	84.7	2339.5356332717
20	539273	84.8	2339.4518018783
20	540234	84.9	2339.3672397514
20	541162	85	2339.2835276159
20	542123	85.1	2339.2014791305
20	543084	85.2	2339.1185043873
20	544011	85.3	2339.0334165985
20	544972	85.4	2338.9513753741
20	545898	85.5	2338.8671620111
20	546859	85.6	2338.7835647139
20	547820	85.7	2338.6987749283
20	548781	85.8	2338.6180311195
20	549742	85.9	2338.533804473
20	550670	86	2338.4501338977
20	551596	86.1	2338.3663193735
20	552523	86.2	2338.2828526071
20	553484	86.3	2338.2019838609
20	554445	86.4	2338.1210852881
20	555406	86.5	2338.0365732263
20	556367	86.6	2337.953648924
20	557318	86.7	2337.872180749
20	558279	86.8	2337.7892844072
20	559205	86.9	2337.707157477
20	560133	87	2337.623942975
20	561094	87.1	2337.541186119
20	562020	87.2	2337.4572967315
20	562981	87.3	2337.3736444756
20	563907	87.4	2337.2904149699
20	564868	87.5	2337.2074096198
20	565794	87.6	2337.1234224513
20	566755	87.7	2337.0393220735
20	567716	87.8	2336.9564985969
20	568677	87.9	2336.8717534945
20	569605	88	2336.7898103999
20	570566	88.1	2336.7038162585
20	571527	88.2	2336.6208364313
20	572488	88.3	2336.5380520679
20	573414	88.4	2336.4553675751
20	574375	88.5	2336.3728642442
20	575301	88.6	2336.2900663489
20	576228	88.7	2336.2049887948
20	577189	88.8	2336.1207953051
20	578150	88.9	2336.035115525
20	579113	89	2335.9506647293
20	580074	89.1	2335.8659289863
20	581035	89.2	2335.783752399
20	581962	89.3	2335.7028915744
20	582923	89.4	2335.6198115089
20	583849	89.5	2335.5367606443
20	584810	89.6	2335.4520879202
20	585771	89.7	2335.3675326939
20	586732	89.8	2335.3252604625
20	587693	89.9	2335.3031367632
20	588656	90	2335.2806952217
20	589582	90.1	2335.2588907814
20	590543	90.2	2335.2370264042
20	591469	90.3	2335.2150982706
20	592430	90.4	2335.1935400313
20	593391	90.5	2335.1713168443
20	594352	90.6	2335.1488415924
20	595278	90.7	2335.1263030475
20	596239	90.8	2335.1047282676
20	597200	90.9	2335.083082805
20	598163	91	2335.0611454238
20	599124	91.1	2335.0394461851
20	600050	91.2	2335.0173892315
20	601011	91.3	2334.9952150544
20	601972	91.4	2334.9732489616
20	603091	91.5	2334.9506576362
20	604210	91.6	2334.9284413701
20	605329	91.7	2334.9063712048
20	606448	91.8	2334.8838780932
20	607529	91.9	2334.8618700632
20	608611	92	2334.8402456546
20	609730	92.1	2334.8179916239
20	610849	92.2	2334.7960688091
20	611968	92.3	2334.774029684
20	613048	92.4	2334.7518832192
20	614167	92.5	2334.7292403232
20	615286	92.6	2334.7070988178
20	616405	92.7	2334.6855161263
20	617521	92.8	2334.6639421637
20	618640	92.9	2334.6420889769
20	619761	93	2334.6198646661
20	620880	93.1	2334.5976769739
20	621999	93.2	2334.5753360459
20	623118	93.3	2334.5533361854
20	624237	93.4	2334.5307755879
20	625356	93.5	2334.5088711119
20	626475	93.6	2334.4866623079
20	627594	93.7	2334.4643890895
20	628713	93.8	2334.442067657
20	629832	93.9	2334.4199459318
20	630915	94	2334.3978590213
20	632204	94.1	2334.3758545805
20	633493	94.2	2334.3539165574
20	634782	94.3	2334.331531399
20	636071	94.4	2334.3090607502
20	637360	94.5	2334.2862738327
20	638649	94.6	2334.2644503844
20	639896	94.7	2334.2422170826
20	641143	94.8	2334.2198269776
20	642432	94.9	2334.197237948
20	643723	95	2334.1745764044
20	645012	95.1	2334.1523311357
20	646301	95.2	2334.1305833363
20	647590	95.3	2334.108452531
20	648837	95.4	2334.0861898613
20	650084	95.5	2334.0640209828
20	651373	95.6	2334.0418168012
20	652620	95.7	2334.0190244756
20	653909	95.8	2333.9988181327
20	655198	95.9	2333.9893431622
20	656489	96	2333.9799147594
20	657737	96.1	2333.9703741994
20	659026	96.2	2333.9606372055
20	660315	96.3	2333.9509013256
20	661604	96.4	2333.9414349149
20	662893	96.5	2333.9318239646
20	664182	96.6	2333.9221362906
20	665607	96.7	2333.9127695839
20	667078	96.8	2333.9033964842
20	668536	96.9	2333.8935742158
20	670009	97	2333.8840389546
20	671480	97.1	2333.8745702287
20	672951	97.2	2333.8650547487
20	674422	97.3	2333.8555841194
20	675893	97.4	2333.8459205858
20	677364	97.5	2333.8363661063
20	678835	97.6	2333.8267312425
20	680306	97.7	2333.826441909
20	681732	97.8	2333.848062988
20	683203	97.9	2333.8690419609
20	684676	98	2333.8901884322
20	686147	98.1	2333.9115948419
20	687618	98.2	2333.9327359996
20	689089	98.3	2333.9539441933
20	690560	98.4	2333.9752209218
20	692031	98.5	2333.9965339816
20	693502	98.6	2334.017561906
20	694973	98.7	2334.0385796535
20	696444	98.8	2334.0598130128
20	697862	98.9	2334.0813264354
20	699327	99	2334.1020536475
20	700783	99.1	2334.1225781286
20	702246	99.2	2334.1440878964
20	703902	99.3	2334.1658500041
20	705558	99.4	2334.2194353834
20	707214	99.5	2334.2797337535
20	708870	99.6	2334.3391132277
20	710479	99.7	2334.398591086
20	712135	99.8	2334.4565637391
20	713791	99.9	2334.5156531276
20	715449	100	2334.5749844825
20	717105	100.1	2334.6336881003
20	718714	100.2	2334.6903548827
20	720370	100.3	2334.7485055393
20	722026	100.4	2334.8059535403
20	723682	100.5	2334.8649528724
20	725291	100.6	2334.9234089697
20	726947	100.7	2334.981152565
20	728603	100.8	2335.0389881978
20	730259	100.9	2335.119951672
20	731917	101	2335.2137062706
20	733573	101.1	2335.3073012242
20	735229	101.2	2335.3974152777
20	736885	101.3	2335.488727587
20	738541	101.4	2335.5817320269
20	740150	101.5	2335.6753081826
20	741759	101.6	2335.7677112611
20	743368	101.7	2335.861105883
20	745025	101.8	2335.9512085759
20	746834	101.9	2336.0434430263
20	748690	102	2336.1352016189
20	750530	102.1	2336.2260869738
20	752384	102.2	2336.3159127407
20	754238	102.3	2336.4060468579
20	756092	102.4	2336.5007063845
20	757946	102.5	2336.6034942532
20	759755	102.6	2336.7075141938
20	761609	102.7	2336.8143746102
20	763463	102.8	2336.9204792461
20	765317	102.9	2337.02647892
20	767173	103	2337.132808128
20	769027	103.1	2337.2393436469
20	770881	103.2	2337.344548814
20	772690	103.3	2337.4511167158
20	774544	103.4	2337.5561583238
20	776398	103.5	2337.6603432007
20	778252	103.6	2337.7636472691
20	780106	103.7	2337.868418424
20	781915	103.8	2337.972673427
20	783769	103.9	2338.075897552
20	785580	104	2338.181703064
20	787434	104.1	2338.2854167867
20	789288	104.2	2338.3893704339
20	791142	104.3	2338.4939830325
20	792996	104.4	2338.5971905153
20	794850	104.5	2338.7022727482
20	796873	104.6	2338.8043926418
20	798936	104.7	2338.9103285357
20	800959	104.8	2339.0169120537
20	803030	104.9	2339.123731751
20	805103	105	2339.2270257623
20	807174	105.1	2339.3308673076
20	809245	105.2	2339.4363883144
20	811317	105.3	2339.5382775232
20	813340	105.4	2339.6413723523
20	815412	105.5	2339.7481180216
20	817469	105.6	2339.8532359691
20	819541	105.7	2339.9585672757
20	821565	105.8	2340.0661585195
20	823588	105.9	2340.1689820241
20	825613	106	2340.2739287844
20	827636	106.1	2340.3783168421
20	829708	106.2	2340.4859270348
20	831780	106.3	2340.5897881875
20	833852	106.4	2340.6957511477
20	835924	106.5	2340.8040142993
20	837996	106.6	2340.9094065006
20	840068	106.7	2341.0145335275
20	842140	106.8	2341.1168903689
20	844212	106.9	2341.2205001825
20	846286	107	2341.3253309821
20	848350	107.1	2341.4296705771
20	850381	107.2	2341.5374484485
20	852500	107.3	2341.6400290735
20	854880	107.4	2341.7448601992
20	857224	107.5	2341.8531811902
20	859569	107.6	2341.956409555
20	861965	107.7	2342.0615127569
20	864361	107.8	2342.1675148122
20	866757	107.9	2342.2708761094
20	869163	108	2342.3787537012
20	871575	108.1	2342.4860117364
20	873944	108.2	2342.5912982592
20	876313	108.3	2342.6972283991
20	878682	108.4	2342.8017819035
20	881043	108.5	2342.9061559284
20	883455	108.6	2343.0124220694
20	885867	108.7	2343.1171721665
20	888279	108.8	2343.2248063337
20	890691	108.9	2343.331815212
20	893113	109	2343.4366180903
20	895533	109.1	2343.5416995935
20	897953	109.2	2343.6452981469
20	900373	109.3	2343.7485576923
20	902793	109.4	2343.8556199359
20	905213	109.5	2343.9632837093
20	907633	109.6	2344.0682753607
20	910053	109.7	2344.1736402499
20	912427	109.8	2344.2790548202
20	914847	109.9	2344.3842682573
20	917269	110	2344.4883241965
20	919689	110.1	2344.5911475648
20	922109	110.2	2344.6938566356
20	924483	110.3	2344.7973069069
20	926903	110.4	2344.9049727396
20	929323	110.5	2345.0116142692
20	931727	110.6	2345.1173461401
20	934123	110.7	2345.2202432206
20	936752	110.8	2345.3224024179
20	939373	110.9	2345.4235678451
20	941988	111	2345.5240621148
20	944593	111.1	2345.6252030992
20	947190	111.2	2345.726409904
20	949779	111.3	2345.8291038141
20	952345	111.4	2345.9315687878
20	954898	111.5	2346.0312198325
20	957446	111.6	2346.129015886
20	959994	111.7	2346.2320238104
20	962497	111.8	2346.3344768672
20	965000	111.9	2346.4345929187
20	967504	112	2346.5334425961
20	970042	112.1	2346.6336532525
20	972537	112.2	2346.7319237104
20	975071	112.3	2346.8295146168
20	977600	112.4	2346.9315860347
20	980129	112.5	2347.0332401477
20	982653	112.6	2347.1351309384
20	985177	112.7	2347.2351122466
20	987696	112.8	2347.3345968954
20	990158	112.9	2347.4345071942
20	992679	113	2347.5323902855
20	995198	113.1	2347.6310621954
20	997717	113.2	2347.7315830402
20	1000236	113.3	2347.8307588182
20	1002755	113.4	2347.9300379413
20	1005274	113.5	2348.0295167366
20	1007793	113.6	2348.1298301383
20	1010312	113.7	2348.2288462379
20	1012831	113.8	2348.3301210989
20	1015350	113.9	2348.4307063412
20	1017871	114	2348.5325748362
20	1020390	114.1	2348.6317124614
20	1022853	114.2	2348.7325544262
20	1025372	114.3	2348.8309460564
20	1027891	114.4	2348.9302997276
20	1030410	114.5	2349.0296511352
20	1032929	114.6	2349.1294918254
20	1035391	114.7	2349.22881823
20	1037910	114.8	2349.3307746744
20	1040372	114.9	2349.4303051926
20	1042893	115	2349.5340291216
20	1045356	115.1	2349.6350054763
20	1047875	115.2	2349.7372437902
20	1050337	115.3	2349.8392516103
20	1052856	115.4	2349.9399259501
20	1055318	115.5	2350.042805177
20	1058080	115.6	2350.1431782637
20	1060842	115.7	2350.2462272531
20	1063556	115.8	2350.3468494264
20	1066318	115.9	2350.4472848427
20	1069043	116	2350.5460001184
20	1071766	116.1	2350.6485539344
20	1074489	116.2	2350.7491315647
20	1077214	116.3	2350.848209711
20	1079937	116.4	2350.9480728069
20	1082699	116.5	2351.0507994766
20	1085461	116.6	2351.1524028371
20	1088175	116.7	2351.2524846342
20	1090945	116.8	2351.3538059846
20	1093670	116.9	2351.4535204829
20	1096434	117	2351.5565391529
20	1099204	117.1	2351.658890562
20	1101927	117.2	2351.7581798263
20	1104593	117.3	2351.8583030426
20	1107363	117.4	2351.9580894441
20	1110077	117.5	2352.0595339854
20	1112791	117.6	2352.160999447
20	1115514	117.7	2352.2612668702
20	1118237	117.8	2352.3650296639
20	1120960	117.9	2352.4653535155
20	1123687	118	2352.5676548228
20	1126441	118.1	2352.668207566
20	1129156	118.2	2352.7712088758
20	1131871	118.3	2352.8709831469
20	1134633	118.4	2352.9717797575
20	1137348	118.5	2353.0713720811
20	1140054	118.6	2353.1731019256
20	1142816	118.7	2353.274037645
20	1145522	118.8	2353.3722774837
20	1148238	118.9	2353.4716818928
20	1150955	119	2353.5738821535
20	1153709	119.1	2353.6775864691
20	1156463	119.2	2353.7798737545
20	1159180	119.3	2353.8799375432
20	1161934	119.4	2353.9812493998
20	1164592	119.5	2354.0805596753
20	1167307	119.6	2354.1815029159
20	1170023	119.7	2354.2807467638
20	1172777	119.8	2354.3821900249
20	1175531	119.9	2354.4813674829
20	1178250	120	2354.5835228547
20	1181004	120.1	2354.6842864297
20	1183758	120.2	2354.7856388279
20	1186474	120.3	2354.8838259394
20	1189190	120.4	2354.9830561838
20	1191944	120.5	2355.0845351402
20	1194706	120.6	2355.1845037723
20	1197460	120.7	2355.2878845773
20	1200222	120.8	2355.3893849057
20	1202938	120.9	2355.4884952079
20	1205646	121	2355.5875383542
20	1208352	121.1	2355.6881973073
20	1211098	121.2	2355.7899556868
20	1213814	121.3	2355.889262958
20	1216568	121.4	2355.9926540693
20	1219226	121.5	2356.0934163539
20	1221942	121.6	2356.1918530128
20	1224696	121.7	2356.2925342791
20	1227628	121.8	2356.392025591
20	1230609	121.9	2356.4908886944
20	1233483	122	2356.5907133385
20	1236462	122.1	2356.6901026765
20	1239395	122.2	2356.7928160636
20	1242318	122.3	2356.8944920267
20	1245240	122.4	2356.99298347
20	1248163	122.5	2357.096462814
20	1251095	122.6	2357.1963501087
20	1254028	122.7	2357.2949960827
20	1256901	122.8	2357.3939827719
20	1259873	122.9	2357.4950254313
20	1262895	123	2357.5977915779
20	1265864	123.1	2357.6981914826
20	1268795	123.2	2357.797172973
20	1271759	123.3	2357.9000092488
20	1274738	123.4	2358.0016555401
20	1277718	123.5	2358.1034587177
20	1280650	123.6	2358.2065684721
20	1283572	123.7	2358.3067121904
20	1286552	123.8	2358.4094183055
20	1289473	123.9	2358.5113727938
20	1292407	124	2358.6141764439
20	1295340	124.1	2358.7151117572
20	1298272	124.2	2358.8162768275
20	1301204	124.3	2358.9140471977
20	1304134	124.4	2359.0139565381
20	1307056	124.5	2359.1164384709
20	1310020	124.6	2359.2153023008
20	1312992	124.7	2359.3186182765
20	1315917	124.8	2359.4205680933
20	1318888	124.9	2359.5213400603
20	1321803	125	2359.6219674114
20	1324775	125.1	2359.7200318644
20	1327794	125.2	2359.8214159851
20	1330718	125.3	2359.9206169619
20	1333690	125.4	2360.0220644732
20	1336696	125.5	2360.1203657201
20	1339559	125.6	2360.2213546402
20	1342470	125.7	2360.3211336266
20	1345435	125.8	2360.4237327101
20	1348400	125.9	2360.5224172191
20	1351363	126	2360.6233251997
20	1354277	126.1	2360.7244889048
20	1357289	126.2	2360.8230920718
20	1360261	126.3	2360.9247693629
20	1363225	126.4	2361.0241100427
20	1366149	126.5	2361.1321312735
20	1369063	126.6	2361.2661407198
20	1371975	126.7	2361.3995094491
20	1374899	126.8	2361.5326133769
20	1377812	126.9	2361.6670308319
20	1380726	127	2361.79790654
20	1383737	127.1	2361.9321039986
20	1386748	127.2	2362.0650142061
20	1389759	127.3	2362.1982784368
20	1392731	127.4	2362.3351643374
20	1395653	127.5	2362.4681274749
20	1398564	127.6	2362.5994763476
20	1401535	127.7	2362.7330657736
20	1404507	127.8	2362.864815535
20	1407414	127.9	2362.9976270492
20	1410338	128	2363.1293102349
20	1413263	128.1	2363.2635384127
20	1416186	128.2	2363.3996175405
20	1419150	128.3	2363.5321921962
20	1422114	128.4	2363.6652484263
20	1425074	128.5	2363.7978955602
20	1428038	128.6	2363.9322505812
20	1430951	128.7	2364.0640154893
20	1433911	128.8	2364.1975695614
20	1436835	128.9	2364.3296099026
20	1439807	129	2364.4656990757
20	1442732	129.1	2364.5965590979
20	1445704	129.2	2364.7273148977
20	1448715	129.3	2364.8595248039
20	1451640	129.4	2364.9984444533
20	1454604	129.5	2365.1328414298
20	1457515	129.6	2365.2650122719
20	1460428	129.7	2365.3993503671
20	1463388	129.8	2365.5329183467
20	1466301	129.9	2365.6684534035
20	1469214	130	2365.7989506059
20	1472186	130.1	2365.9347465945
20	1475098	130.2	2366.0650286587
20	1478062	130.3	2366.1972828418
20	1480987	130.4	2366.3330072032
20	1483912	130.5	2366.4675239796
20	1486883	130.6	2366.6009859926
20	1489888	130.7	2366.7321548617
20	1492858	130.8	2366.8653617349
20	1495781	130.9	2367.0024987058
20	1498802	131	2367.1373749498
20	1501756	131.1	2367.2732607581
20	1504719	131.2	2367.4085174396
20	1507633	131.3	2367.5437206933
20	1510597	131.4	2367.6782329845
20	1513559	131.5	2367.8128836164
20	1516511	131.6	2367.9474066033
20	1519467	131.7	2368.0800958303
20	1522384	131.8	2368.2137737054
20	1525287	131.9	2368.3467474228
20	1528207	132	2368.4787352203
20	1531171	132.1	2368.6095326933
20	1534085	132.2	2368.7455461454
20	1537050	132.3	2368.8803531983
20	1540005	132.4	2369.0155951488
20	1542919	132.5	2369.1473006996
20	1545881	132.6	2369.2821206365
20	1548794	132.7	2369.4171204424
20	1551756	132.8	2369.5536052528
20	1554711	132.9	2369.6895347037
20	1557667	133	2369.8237692489
20	1560621	133.1	2369.9589433704
20	1563524	133.2	2370.0900755898
20	1566487	133.3	2370.2250629494
20	1569489	133.4	2370.3603343697
20	1572440	133.5	2370.4952698335
20	1575403	133.6	2370.6254282617
20	1578304	133.7	2370.7610985534
20	1581266	133.8	2370.8934239065
20	1584169	133.9	2371.029572656
20	1587085	134	2371.162300246
20	1590038	134.1	2371.2954459836
20	1592990	134.2	2371.4327442802
20	1595953	134.3	2371.5694056195
20	1598808	134.4	2371.7025684171
20	1601771	134.5	2371.8350425268
20	1604734	134.6	2371.9687901846
20	1607745	134.7	2372.1025656665
20	1610708	134.8	2372.2350495701
20	1613611	134.9	2372.3689888578
20	1616516	135	2372.5045310764
20	1619432	135.1	2372.6368785172
20	1622383	135.2	2372.7721044372
20	1625297	135.3	2372.9081850306
20	1628258	135.4	2373.0452562189
20	1632640	135.5	2373.1767460509
20	1635591	135.6	2373.3067778747
20	1638505	135.7	2373.4430373724
20	1641456	135.8	2373.5807398212
20	1644410	135.9	2373.7130380009
20	1647327	136	2373.844295543
20	1650183	136.1	2373.9818218515
20	1653147	136.2	2374.1149033055
20	1656110	136.3	2374.249242055
20	1658965	136.4	2374.3804843414
20	1662139	136.5	2374.5111957028
20	1664994	136.6	2374.6431780007
20	1667848	136.7	2374.7791324282
20	1670799	136.8	2374.9171191026
20	1673702	136.9	2375.0544880049
20	1676655	137	2375.1905065202
20	1679618	137.1	2375.3263251276
20	1682532	137.2	2375.4617243072
20	1685543	137.3	2375.5956868088
20	1688459	137.4	2375.730637298
20	1691373	137.5	2375.8637132479
20	1694275	137.6	2376.0000664563
20	1697187	137.7	2376.1314905918
20	1700083	137.8	2376.2632346498
20	1702978	137.9	2376.3979016839
20	1705892	138	2376.5283858714
20	1708888	138.1	2376.6598283752
20	1711790	138.2	2376.7916398919
20	1714737	138.3	2376.9223413164
20	1717591	138.4	2377.0537980866
20	1720487	138.5	2377.1888248518
20	1723447	138.6	2377.3240873857
20	1726404	138.7	2377.4573509309
20	1729361	138.8	2377.591154314
20	1732320	138.9	2377.7283798439
20	1735218	139	2377.8606741999
20	1738223	139.1	2377.9966250024
20	1741183	139.2	2378.1279510609
20	1744095	139.3	2378.2622333219
20	1747055	139.4	2378.3961419062
20	1750011	139.5	2378.5286093107
20	1752905	139.6	2378.6614081927
20	1755864	139.7	2378.7956441207
20	1758718	139.8	2378.9291725709
20	1761677	139.9	2379.0616240705
20	1764592	140	2379.195765952
20	1767553	140.1	2379.3287477521
20	1770463	140.2	2379.4681833744
20	1773316	140.3	2379.6061550261
20	1776210	140.4	2379.7383892859
20	1779205	140.5	2379.8730780893
20	1782211	140.6	2380.0097836518
20	1785168	140.7	2380.1426920517
20	1788080	140.8	2380.2777652243
20	1791028	140.9	2380.414585303
20	1793924	141	2380.5499978077
20	1796930	141.1	2380.6851993914
20	1799925	141.2	2380.823276545
20	1802871	141.3	2380.9601768409
20	1805827	141.4	2381.0954331665
20	1808737	141.5	2381.2288182642
20	1811649	141.6	2381.3671392568
20	1814606	141.7	2381.5013727132
20	1817566	141.8	2381.6354648824
20	1820476	141.9	2381.7706648909
20	1823484	142	2381.9076971067
20	1826444	142.1	2382.0422469133
20	1829354	142.2	2382.1746207002
20	1832248	142.3	2382.3068291055
20	1835142	142.4	2382.4403715709
20	1838103	142.5	2382.5717781067
20	1840996	142.6	2382.7048172858
20	1843906	142.7	2382.8422631082
20	1846816	142.8	2382.9793672503
20	1849761	142.9	2383.1113629151
20	1852706	143	2383.2431993005
20	1855651	143.1	2383.3809708905
20	1858608	143.2	2383.5142037454
20	1861556	143.3	2383.6462377287
20	1864501	143.4	2383.7797639638
20	1867412	143.5	2383.9170362002
20	1870369	143.6	2384.0556910342
20	1873262	143.7	2384.1910698718
20	1876268	143.8	2384.3231371666
20	1879214	143.9	2384.4609385271
20	1882173	144	2384.5940362262
20	1885083	144.1	2384.7259691861
20	1888029	144.2	2384.8610322617
20	1890974	144.3	2384.9970188403
20	1893980	144.4	2385.1290101113
20	1896969	144.5	2385.2609790715
20	1899914	144.6	2385.3976302982
20	1902825	144.7	2385.5314182756
20	1905785	144.8	2385.6639972921
20	1908697	144.9	2385.7989213258
20	1911551	145	2385.932057238
20	1914508	145.1	2386.0638075002
20	1917420	145.2	2386.2028270654
20	1920330	145.3	2386.3379321249
20	1923220	145.4	2386.4696255975
20	1926169	145.5	2386.6042894708
20	1929055	145.6	2386.7399693963
20	1931959	145.7	2386.8759633966
20	1934908	145.8	2387.0116181138
20	1937861	145.9	2387.1485916675
20	1940801	146	2387.2847053905
20	1943704	146.1	2387.4219406783
